  0
SECTION
  2
ENTITIES
999
DXF created from EnergyPlus
999
Program Version,EnergyPlus, Version 23.2.0-7636e6b3e9, YMD=2023.10.25 15:17
999
Polygon Action,TRIANGULATE3DFACE
999
Color Scheme,Default
999
Text - True North
  0
TEXT
  8
1
  6
Continuous
 62
  3
 10
      -11.00000
 20
        3.00000
 30
        0.10000
 40
 .25
  1
True North
 41
 0.0
  7
MONOTXT
210
0.0
220
0.0
230
1.0
999
Text - Building Title
  0
TEXT
  8
1
  6
Continuous
 62
  3
 10
      -14.00000
 20
       -1.00000
 30
        0.10000
 40
 .4
  1
Building - Ref Bldg Medium Office New2004_v1.3_5.0
 41
 0.0
  7
MONOTXT
210
0.0
220
0.0
230
1.0
999
North Arrow Stem
  0
3DFACE
  8
1
 62
  3
 10
      -10.00000
 20
        3.00000
 30
        0.10000
 11
      -10.00000
 21
        3.00000
 31
        0.00000
 12
      -10.00000
 22
        0.00000
 32
        0.00000
 13
      -10.00000
 23
        0.00000
 33
        0.10000
999
North Arrow Head 1
  0
3DFACE
  8
1
 62
  3
 10
      -10.00000
 20
        3.00000
 30
        0.10000
 11
      -10.00000
 21
        3.00000
 31
        0.00000
 12
      -10.50000
 22
        2.13397
 32
        0.00000
 13
      -10.50000
 23
        2.13397
 33
        0.10000
999
North Arrow Head 2
  0
3DFACE
  8
1
 62
  3
 10
      -10.00000
 20
        3.00000
 30
        0.10000
 11
      -10.00000
 21
        3.00000
 31
        0.00000
 12
       -9.50000
 22
        2.13397
 32
        0.00000
 13
       -9.50000
 23
        2.13397
 33
        0.10000
999
North Arrow Side 1
  0
3DFACE
  8
1
 62
  3
 10
      -10.50000
 20
        4.50000
 30
        0.10000
 11
      -10.50000
 21
        4.50000
 31
        0.00000
 12
      -10.50000
 22
        3.50000
 32
        0.00000
 13
      -10.50000
 23
        3.50000
 33
        0.10000
999
North Arrow Side 2
  0
3DFACE
  8
1
 62
  3
 10
      -10.50000
 20
        4.50000
 30
        0.10000
 11
      -10.50000
 21
        4.50000
 31
        0.00000
 12
       -9.50000
 22
        3.50000
 32
        0.00000
 13
       -9.50000
 23
        3.50000
 33
        0.10000
999
North Arrow Side 3
  0
3DFACE
  8
1
 62
  3
 10
       -9.50000
 20
        4.50000
 30
        0.10000
 11
       -9.50000
 21
        4.50000
 31
        0.00000
 12
       -9.50000
 22
        3.50000
 32
        0.00000
 13
       -9.50000
 23
        3.50000
 33
        0.10000
999
Zone Names
999
Zone=1:CORE_BOTTOM
999
Zone=2:CORE_MID
999
Zone=3:CORE_TOP
999
Zone=4:FIRSTFLOOR_PLENUM
999
Zone=5:MIDFLOOR_PLENUM
999
Zone=6:PERIMETER_BOT_ZN_1
999
Zone=7:PERIMETER_BOT_ZN_2
999
Zone=8:PERIMETER_BOT_ZN_3
999
Zone=9:PERIMETER_BOT_ZN_4
999
Zone=10:PERIMETER_MID_ZN_1
999
Zone=11:PERIMETER_MID_ZN_2
999
Zone=12:PERIMETER_MID_ZN_3
999
Zone=13:PERIMETER_MID_ZN_4
999
Zone=14:PERIMETER_TOP_ZN_1
999
Zone=15:PERIMETER_TOP_ZN_2
999
Zone=16:PERIMETER_TOP_ZN_3
999
Zone=17:PERIMETER_TOP_ZN_4
999
Zone=18:TOPFLOOR_PLENUM
999
CORE_BOTTOM:CORE_BOT_ZN_5_WALL_EAST
  0
3DFACE
  8
CORE_BOTTOM
 62
 43
 10
       45.33750
 20
        4.57320
 30
        2.74320
 11
       45.33750
 21
        4.57320
 31
        0.00000
 12
       45.33750
 22
       28.70060
 32
        0.00000
 13
       45.33750
 23
       28.70060
 33
        2.74320
999
CORE_BOTTOM:CORE_BOT_ZN_5_WALL_NORTH
  0
3DFACE
  8
CORE_BOTTOM
 62
 43
 10
       45.33750
 20
       28.70060
 30
        2.74320
 11
       45.33750
 21
       28.70060
 31
        0.00000
 12
        4.57320
 22
       28.70060
 32
        0.00000
 13
        4.57320
 23
       28.70060
 33
        2.74320
999
CORE_BOTTOM:CORE_BOT_ZN_5_WALL_SOUTH
  0
3DFACE
  8
CORE_BOTTOM
 62
 43
 10
        4.57320
 20
        4.57320
 30
        2.74320
 11
        4.57320
 21
        4.57320
 31
        0.00000
 12
       45.33750
 22
        4.57320
 32
        0.00000
 13
       45.33750
 23
        4.57320
 33
        2.74320
999
CORE_BOTTOM:CORE_BOT_ZN_5_WALL_WEST
  0
3DFACE
  8
CORE_BOTTOM
 62
 43
 10
        4.57320
 20
       28.70060
 30
        2.74320
 11
        4.57320
 21
       28.70060
 31
        0.00000
 12
        4.57320
 22
        4.57320
 32
        0.00000
 13
        4.57320
 23
        4.57320
 33
        2.74320
999
CORE_BOTTOM:CORE_BOT_ZN_5_FLOOR
  0
3DFACE
  8
CORE_BOTTOM
 62
  8
 10
       45.33750
 20
       28.70060
 30
        0.00000
 11
       45.33750
 21
        4.57320
 31
        0.00000
 12
        4.57320
 22
        4.57320
 32
        0.00000
 13
        4.57320
 23
       28.70060
 33
        0.00000
999
CORE_BOTTOM:CORE_BOTTOM_CEILING
  0
3DFACE
  8
CORE_BOTTOM
 62
 15
 10
       45.33750
 20
        4.57320
 30
        2.74320
 11
       45.33750
 21
       28.70060
 31
        2.74320
 12
        4.57320
 22
       28.70060
 32
        2.74320
 13
        4.57320
 23
        4.57320
 33
        2.74320
999
CORE_MID:CORE_MID_ZN_5_WALL_EAST
  0
3DFACE
  8
CORE_MID
 62
 43
 10
       45.33750
 20
        4.57320
 30
        6.70560
 11
       45.33750
 21
        4.57320
 31
        3.96240
 12
       45.33750
 22
       28.70060
 32
        3.96240
 13
       45.33750
 23
       28.70060
 33
        6.70560
999
CORE_MID:CORE_MID_ZN_5_WALL_NORTH
  0
3DFACE
  8
CORE_MID
 62
 43
 10
       45.33750
 20
       28.70060
 30
        6.70560
 11
       45.33750
 21
       28.70060
 31
        3.96240
 12
        4.57320
 22
       28.70060
 32
        3.96240
 13
        4.57320
 23
       28.70060
 33
        6.70560
999
CORE_MID:CORE_MID_ZN_5_WALL_SOUTH
  0
3DFACE
  8
CORE_MID
 62
 43
 10
        4.57320
 20
        4.57320
 30
        6.70560
 11
        4.57320
 21
        4.57320
 31
        3.96240
 12
       45.33750
 22
        4.57320
 32
        3.96240
 13
       45.33750
 23
        4.57320
 33
        6.70560
999
CORE_MID:CORE_MID_ZN_5_WALL_WEST
  0
3DFACE
  8
CORE_MID
 62
 43
 10
        4.57320
 20
       28.70060
 30
        6.70560
 11
        4.57320
 21
       28.70060
 31
        3.96240
 12
        4.57320
 22
        4.57320
 32
        3.96240
 13
        4.57320
 23
        4.57320
 33
        6.70560
999
CORE_MID:CORE_MID_ZN_5_FLOOR
  0
3DFACE
  8
CORE_MID
 62
  8
 10
        4.57320
 20
        4.57320
 30
        3.96240
 11
        4.57320
 21
       28.70060
 31
        3.96240
 12
       45.33750
 22
       28.70060
 32
        3.96240
 13
       45.33750
 23
        4.57320
 33
        3.96240
999
CORE_MID:CORE_MID_CEILING
  0
3DFACE
  8
CORE_MID
 62
 15
 10
        4.57320
 20
       28.70060
 30
        6.70560
 11
        4.57320
 21
        4.57320
 31
        6.70560
 12
       45.33750
 22
        4.57320
 32
        6.70560
 13
       45.33750
 23
       28.70060
 33
        6.70560
999
CORE_TOP:CORE_TOP_ZN_5_WALL_EAST
  0
3DFACE
  8
CORE_TOP
 62
 43
 10
       45.33750
 20
        4.57320
 30
       10.66800
 11
       45.33750
 21
        4.57320
 31
        7.92480
 12
       45.33750
 22
       28.70060
 32
        7.92480
 13
       45.33750
 23
       28.70060
 33
       10.66800
999
CORE_TOP:CORE_TOP_ZN_5_WALL_NORTH
  0
3DFACE
  8
CORE_TOP
 62
 43
 10
       45.33750
 20
       28.70060
 30
       10.66800
 11
       45.33750
 21
       28.70060
 31
        7.92480
 12
        4.57320
 22
       28.70060
 32
        7.92480
 13
        4.57320
 23
       28.70060
 33
       10.66800
999
CORE_TOP:CORE_TOP_ZN_5_WALL_SOUTH
  0
3DFACE
  8
CORE_TOP
 62
 43
 10
        4.57320
 20
        4.57320
 30
       10.66800
 11
        4.57320
 21
        4.57320
 31
        7.92480
 12
       45.33750
 22
        4.57320
 32
        7.92480
 13
       45.33750
 23
        4.57320
 33
       10.66800
999
CORE_TOP:CORE_TOP_ZN_5_WALL_WEST
  0
3DFACE
  8
CORE_TOP
 62
 43
 10
        4.57320
 20
       28.70060
 30
       10.66800
 11
        4.57320
 21
       28.70060
 31
        7.92480
 12
        4.57320
 22
        4.57320
 32
        7.92480
 13
        4.57320
 23
        4.57320
 33
       10.66800
999
CORE_TOP:CORE_TOP_ZN_5_FLOOR
  0
3DFACE
  8
CORE_TOP
 62
  8
 10
       45.33750
 20
       28.70060
 30
        7.92480
 11
       45.33750
 21
        4.57320
 31
        7.92480
 12
        4.57320
 22
        4.57320
 32
        7.92480
 13
        4.57320
 23
       28.70060
 33
        7.92480
999
CORE_TOP:CORE_TOP_ZN_5_CEILING
  0
3DFACE
  8
CORE_TOP
 62
 15
 10
       45.33750
 20
        4.57320
 30
       10.66800
 11
       45.33750
 21
       28.70060
 31
       10.66800
 12
        4.57320
 22
       28.70060
 32
       10.66800
 13
        4.57320
 23
        4.57320
 33
       10.66800
999
FIRSTFLOOR_PLENUM:PERIMETER_BOT_PLENUM_WALL_EAST
  0
3DFACE
  8
FIRSTFLOOR_PLENUM
 62
 43
 10
       49.91100
 20
        0.00000
 30
        3.96240
 11
       49.91100
 21
        0.00000
 31
        2.74320
 12
       49.91100
 22
       33.27380
 32
        2.74320
 13
       49.91100
 23
       33.27380
 33
        3.96240
999
FIRSTFLOOR_PLENUM:PERIMETER_BOT_PLENUM_WALL_NORTH
  0
3DFACE
  8
FIRSTFLOOR_PLENUM
 62
 43
 10
       49.91100
 20
       33.27380
 30
        3.96240
 11
       49.91100
 21
       33.27380
 31
        2.74320
 12
        0.00000
 22
       33.27380
 32
        2.74320
 13
        0.00000
 23
       33.27380
 33
        3.96240
999
FIRSTFLOOR_PLENUM:PERIMETER_BOT_PLENUM_WALL_SOUTH
  0
3DFACE
  8
FIRSTFLOOR_PLENUM
 62
 43
 10
        0.00000
 20
        0.00000
 30
        3.96240
 11
        0.00000
 21
        0.00000
 31
        2.74320
 12
       49.91100
 22
        0.00000
 32
        2.74320
 13
       49.91100
 23
        0.00000
 33
        3.96240
999
FIRSTFLOOR_PLENUM:PERIMETER_BOT_PLENUM_WALL_WEST
  0
3DFACE
  8
FIRSTFLOOR_PLENUM
 62
 43
 10
        0.00000
 20
       33.27380
 30
        3.96240
 11
        0.00000
 21
       33.27380
 31
        2.74320
 12
        0.00000
 22
        0.00000
 32
        2.74320
 13
        0.00000
 23
        0.00000
 33
        3.96240
999
FIRSTFLOOR_PLENUM:FIRSTFLOOR_PLENUM_FLOOR_1
  0
3DFACE
  8
FIRSTFLOOR_PLENUM
 62
  8
 10
       45.33750
 20
        4.57320
 30
        2.74320
 11
       49.91100
 21
        0.00000
 31
        2.74320
 12
        0.00000
 22
        0.00000
 32
        2.74320
 13
        4.57320
 23
        4.57320
 33
        2.74320
999
FIRSTFLOOR_PLENUM:FIRSTFLOOR_PLENUM_FLOOR_2
  0
3DFACE
  8
FIRSTFLOOR_PLENUM
 62
  8
 10
       49.91100
 20
        0.00000
 30
        2.74320
 11
       45.33750
 21
        4.57320
 31
        2.74320
 12
       45.33750
 22
       28.70060
 32
        2.74320
 13
       49.91100
 23
       33.27380
 33
        2.74320
999
FIRSTFLOOR_PLENUM:FIRSTFLOOR_PLENUM_FLOOR_3
  0
3DFACE
  8
FIRSTFLOOR_PLENUM
 62
  8
 10
        0.00000
 20
       33.27380
 30
        2.74320
 11
       49.91100
 21
       33.27380
 31
        2.74320
 12
       45.33750
 22
       28.70060
 32
        2.74320
 13
        4.57320
 23
       28.70060
 33
        2.74320
999
FIRSTFLOOR_PLENUM:FIRSTFLOOR_PLENUM_FLOOR_4
  0
3DFACE
  8
FIRSTFLOOR_PLENUM
 62
  8
 10
        4.57320
 20
       28.70060
 30
        2.74320
 11
        4.57320
 21
        4.57320
 31
        2.74320
 12
        0.00000
 22
        0.00000
 32
        2.74320
 13
        0.00000
 23
       33.27380
 33
        2.74320
999
FIRSTFLOOR_PLENUM:FIRSTFLOOR_PLENUM_FLOOR_5
  0
3DFACE
  8
FIRSTFLOOR_PLENUM
 62
  8
 10
        4.57320
 20
        4.57320
 30
        2.74320
 11
        4.57320
 21
       28.70060
 31
        2.74320
 12
       45.33750
 22
       28.70060
 32
        2.74320
 13
       45.33750
 23
        4.57320
 33
        2.74320
999
FIRSTFLOOR_PLENUM:FIRSTFLOOR_PLENUM_CEILING_1
  0
3DFACE
  8
FIRSTFLOOR_PLENUM
 62
 15
 10
        0.00000
 20
        0.00000
 30
        3.96240
 11
       49.91100
 21
        0.00000
 31
        3.96240
 12
       45.33750
 22
        4.57320
 32
        3.96240
 13
        4.57320
 23
        4.57320
 33
        3.96240
999
FIRSTFLOOR_PLENUM:FIRSTFLOOR_PLENUM_CEILING_2
  0
3DFACE
  8
FIRSTFLOOR_PLENUM
 62
 15
 10
       49.91100
 20
        0.00000
 30
        3.96240
 11
       49.91100
 21
       33.27380
 31
        3.96240
 12
       45.33750
 22
       28.70060
 32
        3.96240
 13
       45.33750
 23
        4.57320
 33
        3.96240
999
FIRSTFLOOR_PLENUM:FIRSTFLOOR_PLENUM_CEILING_3
  0
3DFACE
  8
FIRSTFLOOR_PLENUM
 62
 15
 10
        0.00000
 20
       33.27380
 30
        3.96240
 11
        4.57320
 21
       28.70060
 31
        3.96240
 12
       45.33750
 22
       28.70060
 32
        3.96240
 13
       49.91100
 23
       33.27380
 33
        3.96240
999
FIRSTFLOOR_PLENUM:FIRSTFLOOR_PLENUM_CEILING_4
  0
3DFACE
  8
FIRSTFLOOR_PLENUM
 62
 15
 10
        4.57320
 20
       28.70060
 30
        3.96240
 11
        0.00000
 21
       33.27380
 31
        3.96240
 12
        0.00000
 22
        0.00000
 32
        3.96240
 13
        4.57320
 23
        4.57320
 33
        3.96240
999
FIRSTFLOOR_PLENUM:FIRSTFLOOR_PLENUM_CEILING_5
  0
3DFACE
  8
FIRSTFLOOR_PLENUM
 62
 15
 10
       45.33750
 20
        4.57320
 30
        3.96240
 11
       45.33750
 21
       28.70060
 31
        3.96240
 12
        4.57320
 22
       28.70060
 32
        3.96240
 13
        4.57320
 23
        4.57320
 33
        3.96240
999
MIDFLOOR_PLENUM:PERIMETER_MID_PLENUM_WALL_EAST
  0
3DFACE
  8
MIDFLOOR_PLENUM
 62
 43
 10
       49.91100
 20
        0.00000
 30
        7.92480
 11
       49.91100
 21
        0.00000
 31
        6.70560
 12
       49.91100
 22
       33.27380
 32
        6.70560
 13
       49.91100
 23
       33.27380
 33
        7.92480
999
MIDFLOOR_PLENUM:PERIMETER_MID_PLENUM_WALL_NORTH
  0
3DFACE
  8
MIDFLOOR_PLENUM
 62
 43
 10
       49.91100
 20
       33.27380
 30
        7.92480
 11
       49.91100
 21
       33.27380
 31
        6.70560
 12
        0.00000
 22
       33.27380
 32
        6.70560
 13
        0.00000
 23
       33.27380
 33
        7.92480
999
MIDFLOOR_PLENUM:PERIMETER_MID_PLENUM_WALL_SOUTH
  0
3DFACE
  8
MIDFLOOR_PLENUM
 62
 43
 10
        0.00000
 20
        0.00000
 30
        7.92480
 11
        0.00000
 21
        0.00000
 31
        6.70560
 12
       49.91100
 22
        0.00000
 32
        6.70560
 13
       49.91100
 23
        0.00000
 33
        7.92480
999
MIDFLOOR_PLENUM:PERIMETER_MID_PLENUM_WALL_WEST
  0
3DFACE
  8
MIDFLOOR_PLENUM
 62
 43
 10
        0.00000
 20
       33.27380
 30
        7.92480
 11
        0.00000
 21
       33.27380
 31
        6.70560
 12
        0.00000
 22
        0.00000
 32
        6.70560
 13
        0.00000
 23
        0.00000
 33
        7.92480
999
MIDFLOOR_PLENUM:MIDFLOOR_PLENUM_FLOOR_1
  0
3DFACE
  8
MIDFLOOR_PLENUM
 62
  8
 10
        0.00000
 20
        0.00000
 30
        6.70560
 11
        4.57320
 21
        4.57320
 31
        6.70560
 12
       45.33750
 22
        4.57320
 32
        6.70560
 13
       49.91100
 23
        0.00000
 33
        6.70560
999
MIDFLOOR_PLENUM:MIDFLOOR_PLENUM_FLOOR_2
  0
3DFACE
  8
MIDFLOOR_PLENUM
 62
  8
 10
       49.91100
 20
       33.27380
 30
        6.70560
 11
       49.91100
 21
        0.00000
 31
        6.70560
 12
       45.33750
 22
        4.57320
 32
        6.70560
 13
       45.33750
 23
       28.70060
 33
        6.70560
999
MIDFLOOR_PLENUM:MIDFLOOR_PLENUM_FLOOR_3
  0
3DFACE
  8
MIDFLOOR_PLENUM
 62
  8
 10
       49.91100
 20
       33.27380
 30
        6.70560
 11
       45.33750
 21
       28.70060
 31
        6.70560
 12
        4.57320
 22
       28.70060
 32
        6.70560
 13
        0.00000
 23
       33.27380
 33
        6.70560
999
MIDFLOOR_PLENUM:MIDFLOOR_PLENUM_FLOOR_4
  0
3DFACE
  8
MIDFLOOR_PLENUM
 62
  8
 10
        0.00000
 20
       33.27380
 30
        6.70560
 11
        4.57320
 21
       28.70060
 31
        6.70560
 12
        4.57320
 22
        4.57320
 32
        6.70560
 13
        0.00000
 23
        0.00000
 33
        6.70560
999
MIDFLOOR_PLENUM:MIDFLOOR_PLENUM_FLOOR_5
  0
3DFACE
  8
MIDFLOOR_PLENUM
 62
  8
 10
       45.33750
 20
       28.70060
 30
        6.70560
 11
       45.33750
 21
        4.57320
 31
        6.70560
 12
        4.57320
 22
        4.57320
 32
        6.70560
 13
        4.57320
 23
       28.70060
 33
        6.70560
999
MIDFLOOR_PLENUM:MIDFLOOR_PLENUM_CEILING_1
  0
3DFACE
  8
MIDFLOOR_PLENUM
 62
 15
 10
       49.91100
 20
        0.00000
 30
        7.92480
 11
       45.33750
 21
        4.57320
 31
        7.92480
 12
        4.57320
 22
        4.57320
 32
        7.92480
 13
        0.00000
 23
        0.00000
 33
        7.92480
999
MIDFLOOR_PLENUM:MIDFLOOR_PLENUM_CEILING_2
  0
3DFACE
  8
MIDFLOOR_PLENUM
 62
 15
 10
       49.91100
 20
       33.27380
 30
        7.92480
 11
       45.33750
 21
       28.70060
 31
        7.92480
 12
       45.33750
 22
        4.57320
 32
        7.92480
 13
       49.91100
 23
        0.00000
 33
        7.92480
999
MIDFLOOR_PLENUM:MIDFLOOR_PLENUM_CEILING_3
  0
3DFACE
  8
MIDFLOOR_PLENUM
 62
 15
 10
       49.91100
 20
       33.27380
 30
        7.92480
 11
        0.00000
 21
       33.27380
 31
        7.92480
 12
        4.57320
 22
       28.70060
 32
        7.92480
 13
       45.33750
 23
       28.70060
 33
        7.92480
999
MIDFLOOR_PLENUM:MIDFLOOR_PLENUM_CEILING_4
  0
3DFACE
  8
MIDFLOOR_PLENUM
 62
 15
 10
        4.57320
 20
        4.57320
 30
        7.92480
 11
        4.57320
 21
       28.70060
 31
        7.92480
 12
        0.00000
 22
       33.27380
 32
        7.92480
 13
        0.00000
 23
        0.00000
 33
        7.92480
999
MIDFLOOR_PLENUM:MIDFLOOR_PLENUM_CEILING_5
  0
3DFACE
  8
MIDFLOOR_PLENUM
 62
 15
 10
       45.33750
 20
        4.57320
 30
        7.92480
 11
       45.33750
 21
       28.70060
 31
        7.92480
 12
        4.57320
 22
       28.70060
 32
        7.92480
 13
        4.57320
 23
        4.57320
 33
        7.92480
999
PERIMETER_BOT_ZN_1:PERIMETER_BOT_ZN_1_WALL_EAST
  0
3DFACE
  8
PERIMETER_BOT_ZN_1
 62
 43
 10
       49.91100
 20
        0.00000
 30
        2.74320
 11
       49.91100
 21
        0.00000
 31
        0.00000
 12
       45.33750
 22
        4.57320
 32
        0.00000
 13
       45.33750
 23
        4.57320
 33
        2.74320
999
PERIMETER_BOT_ZN_1:PERIMETER_BOT_ZN_1_WALL_NORTH
  0
3DFACE
  8
PERIMETER_BOT_ZN_1
 62
 43
 10
       45.33750
 20
        4.57320
 30
        2.74320
 11
       45.33750
 21
        4.57320
 31
        0.00000
 12
        4.57320
 22
        4.57320
 32
        0.00000
 13
        4.57320
 23
        4.57320
 33
        2.74320
999
PERIMETER_BOT_ZN_1:PERIMETER_BOT_ZN_1_WALL_SOUTH
  0
3DFACE
  8
PERIMETER_BOT_ZN_1
 62
 43
 10
        0.00000
 20
        0.00000
 30
        2.74320
 11
        0.00000
 21
        0.00000
 31
        0.00000
 12
       49.91100
 22
        0.00000
 32
        0.00000
 13
       49.91100
 23
        0.00000
 33
        2.74320
999
PERIMETER_BOT_ZN_1:PERIMETER_BOT_ZN_1_WALL_SOUTH_WINDOW
  0
3DFACE
  8
PERIMETER_BOT_ZN_1
 62
143
 10
        0.00000
 20
        0.00000
 30
        2.32930
 11
        0.00000
 21
        0.00000
 31
        1.02130
 12
       49.91000
 22
        0.00000
 32
        1.02130
 13
       49.91000
 23
        0.00000
 33
        2.32930
999
PERIMETER_BOT_ZN_1:PERIMETER_BOT_ZN_1_WALL_WEST
  0
3DFACE
  8
PERIMETER_BOT_ZN_1
 62
 43
 10
        4.57320
 20
        4.57320
 30
        2.74320
 11
        4.57320
 21
        4.57320
 31
        0.00000
 12
        0.00000
 22
        0.00000
 32
        0.00000
 13
        0.00000
 23
        0.00000
 33
        2.74320
999
PERIMETER_BOT_ZN_1:PERIMETER_BOT_ZN_1_FLOOR
  0
3DFACE
  8
PERIMETER_BOT_ZN_1
 62
  8
 10
        0.00000
 20
        0.00000
 30
        0.00000
 11
        4.57320
 21
        4.57320
 31
        0.00000
 12
       45.33750
 22
        4.57320
 32
        0.00000
 13
       49.91100
 23
        0.00000
 33
        0.00000
999
PERIMETER_BOT_ZN_1:PERIMETER_BOT_ZN_1_CEILING
  0
3DFACE
  8
PERIMETER_BOT_ZN_1
 62
 15
 10
       49.91100
 20
        0.00000
 30
        2.74320
 11
       45.33750
 21
        4.57320
 31
        2.74320
 12
        4.57320
 22
        4.57320
 32
        2.74320
 13
        0.00000
 23
        0.00000
 33
        2.74320
999
PERIMETER_BOT_ZN_2:PERIMETER_BOT_ZN_2_WALL_EAST
  0
3DFACE
  8
PERIMETER_BOT_ZN_2
 62
 43
 10
       49.91100
 20
        0.00000
 30
        2.74320
 11
       49.91100
 21
        0.00000
 31
        0.00000
 12
       49.91100
 22
       33.27380
 32
        0.00000
 13
       49.91100
 23
       33.27380
 33
        2.74320
999
PERIMETER_BOT_ZN_2:PERIMETER_BOT_ZN_2_WALL_EAST_WINDOW
  0
3DFACE
  8
PERIMETER_BOT_ZN_2
 62
143
 10
       49.91100
 20
        0.00000
 30
        2.32930
 11
       49.91100
 21
        0.00000
 31
        1.02130
 12
       49.91100
 22
       33.27370
 32
        1.02130
 13
       49.91100
 23
       33.27370
 33
        2.32930
999
PERIMETER_BOT_ZN_2:PERIMETER_BOT_ZN_2_WALL_NORTH
  0
3DFACE
  8
PERIMETER_BOT_ZN_2
 62
 43
 10
       49.91100
 20
       33.27380
 30
        2.74320
 11
       49.91100
 21
       33.27380
 31
        0.00000
 12
       45.33750
 22
       28.70060
 32
        0.00000
 13
       45.33750
 23
       28.70060
 33
        2.74320
999
PERIMETER_BOT_ZN_2:PERIMETER_BOT_ZN_2_WALL_SOUTH
  0
3DFACE
  8
PERIMETER_BOT_ZN_2
 62
 43
 10
       45.33750
 20
        4.57320
 30
        2.74320
 11
       45.33750
 21
        4.57320
 31
        0.00000
 12
       49.91100
 22
        0.00000
 32
        0.00000
 13
       49.91100
 23
        0.00000
 33
        2.74320
999
PERIMETER_BOT_ZN_2:PERIMETER_BOT_ZN_2_WALL_WEST
  0
3DFACE
  8
PERIMETER_BOT_ZN_2
 62
 43
 10
       45.33750
 20
       28.70060
 30
        2.74320
 11
       45.33750
 21
       28.70060
 31
        0.00000
 12
       45.33750
 22
        4.57320
 32
        0.00000
 13
       45.33750
 23
        4.57320
 33
        2.74320
999
PERIMETER_BOT_ZN_2:PERIMETER_BOT_ZN_2_FLOOR
  0
3DFACE
  8
PERIMETER_BOT_ZN_2
 62
  8
 10
       49.91100
 20
        0.00000
 30
        0.00000
 11
       45.33750
 21
        4.57320
 31
        0.00000
 12
       45.33750
 22
       28.70060
 32
        0.00000
 13
       49.91100
 23
       33.27380
 33
        0.00000
999
PERIMETER_BOT_ZN_2:PERIMETER_BOT_ZN_2_CEILING
  0
3DFACE
  8
PERIMETER_BOT_ZN_2
 62
 15
 10
       45.33750
 20
       28.70060
 30
        2.74320
 11
       45.33750
 21
        4.57320
 31
        2.74320
 12
       49.91100
 22
        0.00000
 32
        2.74320
 13
       49.91100
 23
       33.27380
 33
        2.74320
999
PERIMETER_BOT_ZN_3:PERIMETER_BOT_ZN_3_WALL_EAST
  0
3DFACE
  8
PERIMETER_BOT_ZN_3
 62
 43
 10
       45.33750
 20
       28.70060
 30
        2.74320
 11
       45.33750
 21
       28.70060
 31
        0.00000
 12
       49.91100
 22
       33.27380
 32
        0.00000
 13
       49.91100
 23
       33.27380
 33
        2.74320
999
PERIMETER_BOT_ZN_3:PERIMETER_BOT_ZN_3_WALL_NORTH
  0
3DFACE
  8
PERIMETER_BOT_ZN_3
 62
 43
 10
       49.91100
 20
       33.27380
 30
        2.74320
 11
       49.91100
 21
       33.27380
 31
        0.00000
 12
        0.00000
 22
       33.27380
 32
        0.00000
 13
        0.00000
 23
       33.27380
 33
        2.74320
999
PERIMETER_BOT_ZN_3:PERIMETER_BOT_ZN_3_WALL_NORTH_WINDOW
  0
3DFACE
  8
PERIMETER_BOT_ZN_3
 62
143
 10
       49.91000
 20
       33.27380
 30
        2.32930
 11
       49.91000
 21
       33.27380
 31
        1.02130
 12
        0.00000
 22
       33.27380
 32
        1.02130
 13
        0.00000
 23
       33.27380
 33
        2.32930
999
PERIMETER_BOT_ZN_3:PERIMETER_BOT_ZN_3_WALL_SOUTH
  0
3DFACE
  8
PERIMETER_BOT_ZN_3
 62
 43
 10
        4.57320
 20
       28.70060
 30
        2.74320
 11
        4.57320
 21
       28.70060
 31
        0.00000
 12
       45.33750
 22
       28.70060
 32
        0.00000
 13
       45.33750
 23
       28.70060
 33
        2.74320
999
PERIMETER_BOT_ZN_3:PERIMETER_BOT_ZN_3_WALL_WEST
  0
3DFACE
  8
PERIMETER_BOT_ZN_3
 62
 43
 10
        0.00000
 20
       33.27380
 30
        2.74320
 11
        0.00000
 21
       33.27380
 31
        0.00000
 12
        4.57320
 22
       28.70060
 32
        0.00000
 13
        4.57320
 23
       28.70060
 33
        2.74320
999
PERIMETER_BOT_ZN_3:PERIMETER_BOT_ZN_3_FLOOR
  0
3DFACE
  8
PERIMETER_BOT_ZN_3
 62
  8
 10
       49.91100
 20
       33.27380
 30
        0.00000
 11
       45.33750
 21
       28.70060
 31
        0.00000
 12
        4.57320
 22
       28.70060
 32
        0.00000
 13
        0.00000
 23
       33.27380
 33
        0.00000
999
PERIMETER_BOT_ZN_3:PERIMETER_BOT_ZN_3_CEILILNG
  0
3DFACE
  8
PERIMETER_BOT_ZN_3
 62
 15
 10
        0.00000
 20
       33.27380
 30
        2.74320
 11
        4.57320
 21
       28.70060
 31
        2.74320
 12
       45.33750
 22
       28.70060
 32
        2.74320
 13
       49.91100
 23
       33.27380
 33
        2.74320
999
PERIMETER_BOT_ZN_4:PERIMETER_BOT_ZN_4_WALL_EAST
  0
3DFACE
  8
PERIMETER_BOT_ZN_4
 62
 43
 10
        4.57320
 20
        4.57320
 30
        2.74320
 11
        4.57320
 21
        4.57320
 31
        0.00000
 12
        4.57320
 22
       28.70060
 32
        0.00000
 13
        4.57320
 23
       28.70060
 33
        2.74320
999
PERIMETER_BOT_ZN_4:PERIMETER_BOT_ZN_4_WALL_NORTH
  0
3DFACE
  8
PERIMETER_BOT_ZN_4
 62
 43
 10
        4.57320
 20
       28.70060
 30
        2.74320
 11
        4.57320
 21
       28.70060
 31
        0.00000
 12
        0.00000
 22
       33.27380
 32
        0.00000
 13
        0.00000
 23
       33.27380
 33
        2.74320
999
PERIMETER_BOT_ZN_4:PERIMETER_BOT_ZN_4_WALL_SOUTH
  0
3DFACE
  8
PERIMETER_BOT_ZN_4
 62
 43
 10
        0.00000
 20
        0.00000
 30
        2.74320
 11
        0.00000
 21
        0.00000
 31
        0.00000
 12
        4.57320
 22
        4.57320
 32
        0.00000
 13
        4.57320
 23
        4.57320
 33
        2.74320
999
PERIMETER_BOT_ZN_4:PERIMETER_BOT_ZN_4_WALL_WEST
  0
3DFACE
  8
PERIMETER_BOT_ZN_4
 62
 43
 10
        0.00000
 20
       33.27380
 30
        2.74320
 11
        0.00000
 21
       33.27380
 31
        0.00000
 12
        0.00000
 22
        0.00000
 32
        0.00000
 13
        0.00000
 23
        0.00000
 33
        2.74320
999
PERIMETER_BOT_ZN_4:PERIMETER_BOT_ZN_4_WALL_WEST_WINDOW
  0
3DFACE
  8
PERIMETER_BOT_ZN_4
 62
143
 10
        0.00000
 20
       33.27370
 30
        2.32930
 11
        0.00000
 21
       33.27370
 31
        1.02130
 12
        0.00000
 22
        0.00000
 32
        1.02130
 13
        0.00000
 23
        0.00000
 33
        2.32930
999
PERIMETER_BOT_ZN_4:PERIMETER_BOT_ZN_4_FLOOR
  0
3DFACE
  8
PERIMETER_BOT_ZN_4
 62
  8
 10
        0.00000
 20
       33.27380
 30
        0.00000
 11
        4.57320
 21
       28.70060
 31
        0.00000
 12
        4.57320
 22
        4.57320
 32
        0.00000
 13
        0.00000
 23
        0.00000
 33
        0.00000
999
PERIMETER_BOT_ZN_4:PERIMETER_BOT_ZN_4_CEILING
  0
3DFACE
  8
PERIMETER_BOT_ZN_4
 62
 15
 10
        0.00000
 20
        0.00000
 30
        2.74320
 11
        4.57320
 21
        4.57320
 31
        2.74320
 12
        4.57320
 22
       28.70060
 32
        2.74320
 13
        0.00000
 23
       33.27380
 33
        2.74320
999
PERIMETER_MID_ZN_1:PERIMETER_MID_ZN_1_WALL_EAST
  0
3DFACE
  8
PERIMETER_MID_ZN_1
 62
 43
 10
       49.91100
 20
        0.00000
 30
        6.70560
 11
       49.91100
 21
        0.00000
 31
        3.96240
 12
       45.33750
 22
        4.57320
 32
        3.96240
 13
       45.33750
 23
        4.57320
 33
        6.70560
999
PERIMETER_MID_ZN_1:PERIMETER_MID_ZN_1_WALL_NORTH
  0
3DFACE
  8
PERIMETER_MID_ZN_1
 62
 43
 10
       45.33750
 20
        4.57320
 30
        6.70560
 11
       45.33750
 21
        4.57320
 31
        3.96240
 12
        4.57320
 22
        4.57320
 32
        3.96240
 13
        4.57320
 23
        4.57320
 33
        6.70560
999
PERIMETER_MID_ZN_1:PERIMETER_MID_ZN_1_WALL_SOUTH
  0
3DFACE
  8
PERIMETER_MID_ZN_1
 62
 43
 10
        0.00000
 20
        0.00000
 30
        6.70560
 11
        0.00000
 21
        0.00000
 31
        3.96240
 12
       49.91100
 22
        0.00000
 32
        3.96240
 13
       49.91100
 23
        0.00000
 33
        6.70560
999
PERIMETER_MID_ZN_1:PERIMETER_MID_ZN_1_WALL_SOUTH_WINDOW
  0
3DFACE
  8
PERIMETER_MID_ZN_1
 62
143
 10
        0.00000
 20
        0.00000
 30
        6.29170
 11
        0.00000
 21
        0.00000
 31
        4.98370
 12
       49.91000
 22
        0.00000
 32
        4.98370
 13
       49.91000
 23
        0.00000
 33
        6.29170
999
PERIMETER_MID_ZN_1:PERIMETER_MID_ZN_1_WALL_WEST
  0
3DFACE
  8
PERIMETER_MID_ZN_1
 62
 43
 10
        4.57320
 20
        4.57320
 30
        6.70560
 11
        4.57320
 21
        4.57320
 31
        3.96240
 12
        0.00000
 22
        0.00000
 32
        3.96240
 13
        0.00000
 23
        0.00000
 33
        6.70560
999
PERIMETER_MID_ZN_1:PERIMETER_MID_ZN_1_FLOOR
  0
3DFACE
  8
PERIMETER_MID_ZN_1
 62
  8
 10
        0.00000
 20
        0.00000
 30
        3.96240
 11
        4.57320
 21
        4.57320
 31
        3.96240
 12
       45.33750
 22
        4.57320
 32
        3.96240
 13
       49.91100
 23
        0.00000
 33
        3.96240
999
PERIMETER_MID_ZN_1:PERIMETER_MID_ZN_1_CEILING
  0
3DFACE
  8
PERIMETER_MID_ZN_1
 62
 15
 10
       49.91100
 20
        0.00000
 30
        6.70560
 11
       45.33750
 21
        4.57320
 31
        6.70560
 12
        4.57320
 22
        4.57320
 32
        6.70560
 13
        0.00000
 23
        0.00000
 33
        6.70560
999
PERIMETER_MID_ZN_2:PERIMETER_MID_ZN_2_WALL_EAST
  0
3DFACE
  8
PERIMETER_MID_ZN_2
 62
 43
 10
       49.91100
 20
        0.00000
 30
        6.70560
 11
       49.91100
 21
        0.00000
 31
        3.96240
 12
       49.91100
 22
       33.27380
 32
        3.96240
 13
       49.91100
 23
       33.27380
 33
        6.70560
999
PERIMETER_MID_ZN_2:PERIMETER_MID_ZN_2_WALL_EAST_WINDOW
  0
3DFACE
  8
PERIMETER_MID_ZN_2
 62
143
 10
       49.91100
 20
        0.00000
 30
        6.29170
 11
       49.91100
 21
        0.00000
 31
        4.98370
 12
       49.91100
 22
       33.27370
 32
        4.98370
 13
       49.91100
 23
       33.27370
 33
        6.29170
999
PERIMETER_MID_ZN_2:PERIMETER_MID_ZN_2_WALL_NORTH
  0
3DFACE
  8
PERIMETER_MID_ZN_2
 62
 43
 10
       49.91100
 20
       33.27380
 30
        6.70560
 11
       49.91100
 21
       33.27380
 31
        3.96240
 12
       45.33750
 22
       28.70060
 32
        3.96240
 13
       45.33750
 23
       28.70060
 33
        6.70560
999
PERIMETER_MID_ZN_2:PERIMETER_MID_ZN_2_WALL_SOUTH
  0
3DFACE
  8
PERIMETER_MID_ZN_2
 62
 43
 10
       45.33750
 20
        4.57320
 30
        6.70560
 11
       45.33750
 21
        4.57320
 31
        3.96240
 12
       49.91100
 22
        0.00000
 32
        3.96240
 13
       49.91100
 23
        0.00000
 33
        6.70560
999
PERIMETER_MID_ZN_2:PERIMETER_MID_ZN_2_WALL_WEST
  0
3DFACE
  8
PERIMETER_MID_ZN_2
 62
 43
 10
       45.33750
 20
       28.70060
 30
        6.70560
 11
       45.33750
 21
       28.70060
 31
        3.96240
 12
       45.33750
 22
        4.57320
 32
        3.96240
 13
       45.33750
 23
        4.57320
 33
        6.70560
999
PERIMETER_MID_ZN_2:PERIMETER_MID_ZN_2_FLOOR
  0
3DFACE
  8
PERIMETER_MID_ZN_2
 62
  8
 10
       49.91100
 20
        0.00000
 30
        3.96240
 11
       45.33750
 21
        4.57320
 31
        3.96240
 12
       45.33750
 22
       28.70060
 32
        3.96240
 13
       49.91100
 23
       33.27380
 33
        3.96240
999
PERIMETER_MID_ZN_2:PERIMETER_MID_ZN_2_CEILING
  0
3DFACE
  8
PERIMETER_MID_ZN_2
 62
 15
 10
       49.91100
 20
       33.27380
 30
        6.70560
 11
       45.33750
 21
       28.70060
 31
        6.70560
 12
       45.33750
 22
        4.57320
 32
        6.70560
 13
       49.91100
 23
        0.00000
 33
        6.70560
999
PERIMETER_MID_ZN_3:PERIMETER_MID_ZN_3_WALL_EAST
  0
3DFACE
  8
PERIMETER_MID_ZN_3
 62
 43
 10
       45.33750
 20
       28.70060
 30
        6.70560
 11
       45.33750
 21
       28.70060
 31
        3.96240
 12
       49.91100
 22
       33.27380
 32
        3.96240
 13
       49.91100
 23
       33.27380
 33
        6.70560
999
PERIMETER_MID_ZN_3:PERIMETER_MID_ZN_3_WALL_NORTH
  0
3DFACE
  8
PERIMETER_MID_ZN_3
 62
 43
 10
       49.91100
 20
       33.27380
 30
        6.70560
 11
       49.91100
 21
       33.27380
 31
        3.96240
 12
        0.00000
 22
       33.27380
 32
        3.96240
 13
        0.00000
 23
       33.27380
 33
        6.70560
999
PERIMETER_MID_ZN_3:PERIMETER_MID_ZN_3_WALL_NORTH_WINDOW
  0
3DFACE
  8
PERIMETER_MID_ZN_3
 62
143
 10
       49.91000
 20
       33.27380
 30
        6.29170
 11
       49.91000
 21
       33.27380
 31
        4.98370
 12
        0.00000
 22
       33.27380
 32
        4.98370
 13
        0.00000
 23
       33.27380
 33
        6.29170
999
PERIMETER_MID_ZN_3:PERIMETER_MID_ZN_3_WALL_SOUTH
  0
3DFACE
  8
PERIMETER_MID_ZN_3
 62
 43
 10
        4.57320
 20
       28.70060
 30
        6.70560
 11
        4.57320
 21
       28.70060
 31
        3.96240
 12
       45.33750
 22
       28.70060
 32
        3.96240
 13
       45.33750
 23
       28.70060
 33
        6.70560
999
PERIMETER_MID_ZN_3:PERIMETER_MID_ZN_3_WALL_WEST
  0
3DFACE
  8
PERIMETER_MID_ZN_3
 62
 43
 10
        0.00000
 20
       33.27380
 30
        6.70560
 11
        0.00000
 21
       33.27380
 31
        3.96240
 12
        4.57320
 22
       28.70060
 32
        3.96240
 13
        4.57320
 23
       28.70060
 33
        6.70560
999
PERIMETER_MID_ZN_3:PERIMETER_MID_ZN_3_FLOOR
  0
3DFACE
  8
PERIMETER_MID_ZN_3
 62
  8
 10
       49.91100
 20
       33.27380
 30
        3.96240
 11
       45.33750
 21
       28.70060
 31
        3.96240
 12
        4.57320
 22
       28.70060
 32
        3.96240
 13
        0.00000
 23
       33.27380
 33
        3.96240
999
PERIMETER_MID_ZN_3:PERIMETER_MID_ZN_3_CEILING
  0
3DFACE
  8
PERIMETER_MID_ZN_3
 62
 15
 10
        0.00000
 20
       33.27380
 30
        6.70560
 11
        4.57320
 21
       28.70060
 31
        6.70560
 12
       45.33750
 22
       28.70060
 32
        6.70560
 13
       49.91100
 23
       33.27380
 33
        6.70560
999
PERIMETER_MID_ZN_4:PERIMETER_MID_ZN_4_WALL_EAST
  0
3DFACE
  8
PERIMETER_MID_ZN_4
 62
 43
 10
        4.57320
 20
        4.57320
 30
        6.70560
 11
        4.57320
 21
        4.57320
 31
        3.96240
 12
        4.57320
 22
       28.70060
 32
        3.96240
 13
        4.57320
 23
       28.70060
 33
        6.70560
999
PERIMETER_MID_ZN_4:PERIMETER_MID_ZN_4_WALL_NORTH
  0
3DFACE
  8
PERIMETER_MID_ZN_4
 62
 43
 10
        4.57320
 20
       28.70060
 30
        6.70560
 11
        4.57320
 21
       28.70060
 31
        3.96240
 12
        0.00000
 22
       33.27380
 32
        3.96240
 13
        0.00000
 23
       33.27380
 33
        6.70560
999
PERIMETER_MID_ZN_4:PERIMETER_MID_ZN_4_WALL_SOUTH
  0
3DFACE
  8
PERIMETER_MID_ZN_4
 62
 43
 10
        0.00000
 20
        0.00000
 30
        6.70560
 11
        0.00000
 21
        0.00000
 31
        3.96240
 12
        4.57320
 22
        4.57320
 32
        3.96240
 13
        4.57320
 23
        4.57320
 33
        6.70560
999
PERIMETER_MID_ZN_4:PERIMETER_MID_ZN_4_WALL_WEST
  0
3DFACE
  8
PERIMETER_MID_ZN_4
 62
 43
 10
        0.00000
 20
       33.27380
 30
        6.70560
 11
        0.00000
 21
       33.27380
 31
        3.96240
 12
        0.00000
 22
        0.00000
 32
        3.96240
 13
        0.00000
 23
        0.00000
 33
        6.70560
999
PERIMETER_MID_ZN_4:PERIMETER_MID_ZN_4_WALL_WEST_WINDOW
  0
3DFACE
  8
PERIMETER_MID_ZN_4
 62
143
 10
        0.00000
 20
       33.27370
 30
        6.29170
 11
        0.00000
 21
       33.27370
 31
        4.98370
 12
        0.00000
 22
        0.00000
 32
        4.98370
 13
        0.00000
 23
        0.00000
 33
        6.29170
999
PERIMETER_MID_ZN_4:PERIMETER_MID_ZN_4_FLOOR
  0
3DFACE
  8
PERIMETER_MID_ZN_4
 62
  8
 10
        0.00000
 20
       33.27380
 30
        3.96240
 11
        4.57320
 21
       28.70060
 31
        3.96240
 12
        4.57320
 22
        4.57320
 32
        3.96240
 13
        0.00000
 23
        0.00000
 33
        3.96240
999
PERIMETER_MID_ZN_4:PERIMETER_MID_ZN_4_CEILING
  0
3DFACE
  8
PERIMETER_MID_ZN_4
 62
 15
 10
        0.00000
 20
        0.00000
 30
        6.70560
 11
        4.57320
 21
        4.57320
 31
        6.70560
 12
        4.57320
 22
       28.70060
 32
        6.70560
 13
        0.00000
 23
       33.27380
 33
        6.70560
999
PERIMETER_TOP_ZN_1:PERIMETER_TOP_ZN_1_WALL_EAST
  0
3DFACE
  8
PERIMETER_TOP_ZN_1
 62
 43
 10
       49.91100
 20
        0.00000
 30
       10.66800
 11
       49.91100
 21
        0.00000
 31
        7.92480
 12
       45.33750
 22
        4.57320
 32
        7.92480
 13
       45.33750
 23
        4.57320
 33
       10.66800
999
PERIMETER_TOP_ZN_1:PERIMETER_TOP_ZN_1_WALL_NORTH
  0
3DFACE
  8
PERIMETER_TOP_ZN_1
 62
 43
 10
       45.33750
 20
        4.57320
 30
       10.66800
 11
       45.33750
 21
        4.57320
 31
        7.92480
 12
        4.57320
 22
        4.57320
 32
        7.92480
 13
        4.57320
 23
        4.57320
 33
       10.66800
999
PERIMETER_TOP_ZN_1:PERIMETER_TOP_ZN_1_WALL_SOUTH
  0
3DFACE
  8
PERIMETER_TOP_ZN_1
 62
 43
 10
        0.00000
 20
        0.00000
 30
       10.66800
 11
        0.00000
 21
        0.00000
 31
        7.92480
 12
       49.91100
 22
        0.00000
 32
        7.92480
 13
       49.91100
 23
        0.00000
 33
       10.66800
999
PERIMETER_TOP_ZN_1:PERIMETER_TOP_ZN_1_WALL_SOUTH_WINDOW
  0
3DFACE
  8
PERIMETER_TOP_ZN_1
 62
143
 10
        0.00000
 20
        0.00000
 30
       10.25410
 11
        0.00000
 21
        0.00000
 31
        8.94610
 12
       49.91000
 22
        0.00000
 32
        8.94610
 13
       49.91000
 23
        0.00000
 33
       10.25410
999
PERIMETER_TOP_ZN_1:PERIMETER_TOP_ZN_1_WALL_WEST
  0
3DFACE
  8
PERIMETER_TOP_ZN_1
 62
 43
 10
        4.57320
 20
        4.57320
 30
       10.66800
 11
        4.57320
 21
        4.57320
 31
        7.92480
 12
        0.00000
 22
        0.00000
 32
        7.92480
 13
        0.00000
 23
        0.00000
 33
       10.66800
999
PERIMETER_TOP_ZN_1:PERIMETER_TOP_ZN_1_FLOOR
  0
3DFACE
  8
PERIMETER_TOP_ZN_1
 62
  8
 10
        0.00000
 20
        0.00000
 30
        7.92480
 11
        4.57320
 21
        4.57320
 31
        7.92480
 12
       45.33750
 22
        4.57320
 32
        7.92480
 13
       49.91100
 23
        0.00000
 33
        7.92480
999
PERIMETER_TOP_ZN_1:PERIMETER_TOP_ZN_1_CEILING
  0
3DFACE
  8
PERIMETER_TOP_ZN_1
 62
 15
 10
        0.00000
 20
        0.00000
 30
       10.66800
 11
       49.91100
 21
        0.00000
 31
       10.66800
 12
       45.33750
 22
        4.57320
 32
       10.66800
 13
        4.57320
 23
        4.57320
 33
       10.66800
999
PERIMETER_TOP_ZN_2:PERIMETER_TOP_ZN_2_WALL_EAST
  0
3DFACE
  8
PERIMETER_TOP_ZN_2
 62
 43
 10
       49.91100
 20
        0.00000
 30
       10.66800
 11
       49.91100
 21
        0.00000
 31
        7.92480
 12
       49.91100
 22
       33.27380
 32
        7.92480
 13
       49.91100
 23
       33.27380
 33
       10.66800
999
PERIMETER_TOP_ZN_2:PERIMETER_TOP_ZN_2_WALL_EAST_WINDOW
  0
3DFACE
  8
PERIMETER_TOP_ZN_2
 62
143
 10
       49.91100
 20
        0.00000
 30
       10.25410
 11
       49.91100
 21
        0.00000
 31
        8.94610
 12
       49.91100
 22
       33.27370
 32
        8.94610
 13
       49.91100
 23
       33.27370
 33
       10.25410
999
PERIMETER_TOP_ZN_2:PERIMETER_TOP_ZN_2_WALL_NORTH
  0
3DFACE
  8
PERIMETER_TOP_ZN_2
 62
 43
 10
       49.91100
 20
       33.27380
 30
       10.66800
 11
       49.91100
 21
       33.27380
 31
        7.92480
 12
       45.33750
 22
       28.70060
 32
        7.92480
 13
       45.33750
 23
       28.70060
 33
       10.66800
999
PERIMETER_TOP_ZN_2:PERIMETER_TOP_ZN_2_WALL_SOUTH
  0
3DFACE
  8
PERIMETER_TOP_ZN_2
 62
 43
 10
       45.33750
 20
        4.57320
 30
       10.66800
 11
       45.33750
 21
        4.57320
 31
        7.92480
 12
       49.91100
 22
        0.00000
 32
        7.92480
 13
       49.91100
 23
        0.00000
 33
       10.66800
999
PERIMETER_TOP_ZN_2:PERIMETER_TOP_ZN_2_WALL_WEST
  0
3DFACE
  8
PERIMETER_TOP_ZN_2
 62
 43
 10
       45.33750
 20
       28.70060
 30
       10.66800
 11
       45.33750
 21
       28.70060
 31
        7.92480
 12
       45.33750
 22
        4.57320
 32
        7.92480
 13
       45.33750
 23
        4.57320
 33
       10.66800
999
PERIMETER_TOP_ZN_2:PERIMETER_TOP_ZN_2_FLOOR
  0
3DFACE
  8
PERIMETER_TOP_ZN_2
 62
  8
 10
       49.91100
 20
        0.00000
 30
        7.92480
 11
       45.33750
 21
        4.57320
 31
        7.92480
 12
       45.33750
 22
       28.70060
 32
        7.92480
 13
       49.91100
 23
       33.27380
 33
        7.92480
999
PERIMETER_TOP_ZN_2:PERIMETER_TOP_ZN_2_CEILING
  0
3DFACE
  8
PERIMETER_TOP_ZN_2
 62
 15
 10
       49.91100
 20
        0.00000
 30
       10.66800
 11
       49.91100
 21
       33.27380
 31
       10.66800
 12
       45.33750
 22
       28.70060
 32
       10.66800
 13
       45.33750
 23
        4.57320
 33
       10.66800
999
PERIMETER_TOP_ZN_3:PERIMETER_TOP_ZN_3_WALL_EAST
  0
3DFACE
  8
PERIMETER_TOP_ZN_3
 62
 43
 10
       45.33750
 20
       28.70060
 30
       10.66800
 11
       45.33750
 21
       28.70060
 31
        7.92480
 12
       49.91100
 22
       33.27380
 32
        7.92480
 13
       49.91100
 23
       33.27380
 33
       10.66800
999
PERIMETER_TOP_ZN_3:PERIMETER_TOP_ZN_3_WALL_NORTH
  0
3DFACE
  8
PERIMETER_TOP_ZN_3
 62
 43
 10
       49.91100
 20
       33.27380
 30
       10.66800
 11
       49.91100
 21
       33.27380
 31
        7.92480
 12
        0.00000
 22
       33.27380
 32
        7.92480
 13
        0.00000
 23
       33.27380
 33
       10.66800
999
PERIMETER_TOP_ZN_3:PERIMETER_TOP_ZN_3_WALL_NORTH_WINDOW
  0
3DFACE
  8
PERIMETER_TOP_ZN_3
 62
143
 10
       49.91000
 20
       33.27380
 30
       10.25410
 11
       49.91000
 21
       33.27380
 31
        8.94610
 12
        0.00000
 22
       33.27380
 32
        8.94610
 13
        0.00000
 23
       33.27380
 33
       10.25410
999
PERIMETER_TOP_ZN_3:PERIMETER_TOP_ZN_3_WALL_SOUTH
  0
3DFACE
  8
PERIMETER_TOP_ZN_3
 62
 43
 10
        4.57320
 20
       28.70060
 30
       10.66800
 11
        4.57320
 21
       28.70060
 31
        7.92480
 12
       45.33750
 22
       28.70060
 32
        7.92480
 13
       45.33750
 23
       28.70060
 33
       10.66800
999
PERIMETER_TOP_ZN_3:PERIMETER_TOP_ZN_3_WALL_WEST
  0
3DFACE
  8
PERIMETER_TOP_ZN_3
 62
 43
 10
        0.00000
 20
       33.27380
 30
       10.66800
 11
        0.00000
 21
       33.27380
 31
        7.92480
 12
        4.57320
 22
       28.70060
 32
        7.92480
 13
        4.57320
 23
       28.70060
 33
       10.66800
999
PERIMETER_TOP_ZN_3:PERIMETER_TOP_ZN_3_FLOOR
  0
3DFACE
  8
PERIMETER_TOP_ZN_3
 62
  8
 10
       49.91100
 20
       33.27380
 30
        7.92480
 11
       45.33750
 21
       28.70060
 31
        7.92480
 12
        4.57320
 22
       28.70060
 32
        7.92480
 13
        0.00000
 23
       33.27380
 33
        7.92480
999
PERIMETER_TOP_ZN_3:PERIMETER_TOP_ZN_3_CEILING
  0
3DFACE
  8
PERIMETER_TOP_ZN_3
 62
 15
 10
       49.91100
 20
       33.27380
 30
       10.66800
 11
        0.00000
 21
       33.27380
 31
       10.66800
 12
        4.57320
 22
       28.70060
 32
       10.66800
 13
       45.33750
 23
       28.70060
 33
       10.66800
999
PERIMETER_TOP_ZN_4:PERIMETER_TOP_ZN_4_WALL_EAST
  0
3DFACE
  8
PERIMETER_TOP_ZN_4
 62
 43
 10
        4.57320
 20
        4.57320
 30
       10.66800
 11
        4.57320
 21
        4.57320
 31
        7.92480
 12
        4.57320
 22
       28.70060
 32
        7.92480
 13
        4.57320
 23
       28.70060
 33
       10.66800
999
PERIMETER_TOP_ZN_4:PERIMETER_TOP_ZN_4_WALL_NORTH
  0
3DFACE
  8
PERIMETER_TOP_ZN_4
 62
 43
 10
        4.57320
 20
       28.70060
 30
       10.66800
 11
        4.57320
 21
       28.70060
 31
        7.92480
 12
        0.00000
 22
       33.27380
 32
        7.92480
 13
        0.00000
 23
       33.27380
 33
       10.66800
999
PERIMETER_TOP_ZN_4:PERIMETER_TOP_ZN_4_WALL_SOUTH
  0
3DFACE
  8
PERIMETER_TOP_ZN_4
 62
 43
 10
        0.00000
 20
        0.00000
 30
       10.66800
 11
        0.00000
 21
        0.00000
 31
        7.92480
 12
        4.57320
 22
        4.57320
 32
        7.92480
 13
        4.57320
 23
        4.57320
 33
       10.66800
999
PERIMETER_TOP_ZN_4:PERIMETER_TOP_ZN_4_WALL_WEST
  0
3DFACE
  8
PERIMETER_TOP_ZN_4
 62
 43
 10
        0.00000
 20
       33.27380
 30
       10.66800
 11
        0.00000
 21
       33.27380
 31
        7.92480
 12
        0.00000
 22
        0.00000
 32
        7.92480
 13
        0.00000
 23
        0.00000
 33
       10.66800
999
PERIMETER_TOP_ZN_4:PERIMETER_TOP_ZN_4_WALL_WEST_WINDOW
  0
3DFACE
  8
PERIMETER_TOP_ZN_4
 62
143
 10
        0.00000
 20
       33.27370
 30
       10.25410
 11
        0.00000
 21
       33.27370
 31
        8.94610
 12
        0.00000
 22
        0.00000
 32
        8.94610
 13
        0.00000
 23
        0.00000
 33
       10.25410
999
PERIMETER_TOP_ZN_4:PERIMETER_TOP_ZN_4_FLOOR
  0
3DFACE
  8
PERIMETER_TOP_ZN_4
 62
  8
 10
        0.00000
 20
       33.27380
 30
        7.92480
 11
        4.57320
 21
       28.70060
 31
        7.92480
 12
        4.57320
 22
        4.57320
 32
        7.92480
 13
        0.00000
 23
        0.00000
 33
        7.92480
999
PERIMETER_TOP_ZN_4:PERIMETER_TOP_ZN_4_CEILING
  0
3DFACE
  8
PERIMETER_TOP_ZN_4
 62
 15
 10
        0.00000
 20
       33.27380
 30
       10.66800
 11
        0.00000
 21
        0.00000
 31
       10.66800
 12
        4.57320
 22
        4.57320
 32
       10.66800
 13
        4.57320
 23
       28.70060
 33
       10.66800
999
TOPFLOOR_PLENUM:PERIMETER_TOP_PLENUM_WALL_EAST
  0
3DFACE
  8
TOPFLOOR_PLENUM
 62
 43
 10
       49.91100
 20
        0.00000
 30
       11.88720
 11
       49.91100
 21
        0.00000
 31
       10.66800
 12
       49.91100
 22
       33.27380
 32
       10.66800
 13
       49.91100
 23
       33.27380
 33
       11.88720
999
TOPFLOOR_PLENUM:PERIMETER_TOP_PLENUM_WALL_NORTH
  0
3DFACE
  8
TOPFLOOR_PLENUM
 62
 43
 10
       49.91100
 20
       33.27380
 30
       11.88720
 11
       49.91100
 21
       33.27380
 31
       10.66800
 12
        0.00000
 22
       33.27380
 32
       10.66800
 13
        0.00000
 23
       33.27380
 33
       11.88720
999
TOPFLOOR_PLENUM:PERIMETER_TOP_PLENUM_WALL_SOUTH
  0
3DFACE
  8
TOPFLOOR_PLENUM
 62
 43
 10
        0.00000
 20
        0.00000
 30
       11.88720
 11
        0.00000
 21
        0.00000
 31
       10.66800
 12
       49.91100
 22
        0.00000
 32
       10.66800
 13
       49.91100
 23
        0.00000
 33
       11.88720
999
TOPFLOOR_PLENUM:PERIMETER_TOP_PLENUM_WALL_WEST
  0
3DFACE
  8
TOPFLOOR_PLENUM
 62
 43
 10
        0.00000
 20
       33.27380
 30
       11.88720
 11
        0.00000
 21
       33.27380
 31
       10.66800
 12
        0.00000
 22
        0.00000
 32
       10.66800
 13
        0.00000
 23
        0.00000
 33
       11.88720
999
TOPFLOOR_PLENUM:TOPFLOOR_PLENUM_FLOOR_1
  0
3DFACE
  8
TOPFLOOR_PLENUM
 62
  8
 10
        0.00000
 20
        0.00000
 30
       10.66800
 11
        4.57320
 21
        4.57320
 31
       10.66800
 12
       45.33750
 22
        4.57320
 32
       10.66800
 13
       49.91100
 23
        0.00000
 33
       10.66800
999
TOPFLOOR_PLENUM:TOPFLOOR_PLENUM_FLOOR_2
  0
3DFACE
  8
TOPFLOOR_PLENUM
 62
  8
 10
       49.91100
 20
        0.00000
 30
       10.66800
 11
       45.33750
 21
        4.57320
 31
       10.66800
 12
       45.33750
 22
       28.70060
 32
       10.66800
 13
       49.91100
 23
       33.27380
 33
       10.66800
999
TOPFLOOR_PLENUM:TOPFLOOR_PLENUM_FLOOR_3
  0
3DFACE
  8
TOPFLOOR_PLENUM
 62
  8
 10
        0.00000
 20
       33.27380
 30
       10.66800
 11
       49.91100
 21
       33.27380
 31
       10.66800
 12
       45.33750
 22
       28.70060
 32
       10.66800
 13
        4.57320
 23
       28.70060
 33
       10.66800
999
TOPFLOOR_PLENUM:TOPFLOOR_PLENUM_FLOOR_4
  0
3DFACE
  8
TOPFLOOR_PLENUM
 62
  8
 10
        0.00000
 20
        0.00000
 30
       10.66800
 11
        0.00000
 21
       33.27380
 31
       10.66800
 12
        4.57320
 22
       28.70060
 32
       10.66800
 13
        4.57320
 23
        4.57320
 33
       10.66800
999
TOPFLOOR_PLENUM:TOPFLOOR_PLENUM_FLOOR_5
  0
3DFACE
  8
TOPFLOOR_PLENUM
 62
  8
 10
        4.57320
 20
       28.70060
 30
       10.66800
 11
       45.33750
 21
       28.70060
 31
       10.66800
 12
       45.33750
 22
        4.57320
 32
       10.66800
 13
        4.57320
 23
        4.57320
 33
       10.66800
999
TOPFLOOR_PLENUM:BUILDING_ROOF
  0
3DFACE
  8
TOPFLOOR_PLENUM
 62
 15
 10
       49.91100
 20
        0.00000
 30
       11.88720
 11
       49.91100
 21
       33.27380
 31
       11.88720
 12
        0.00000
 22
       33.27380
 32
       11.88720
 13
        0.00000
 23
        0.00000
 33
       11.88720
  0
ENDSEC
  0
EOF
