Program Version,EnergyPlus, Version 23.2.0-7636e6b3e9, YMD=2023.10.25 15:17
! <Version>, Version ID
 Version, 23.2
! <Timesteps per Hour>, #TimeSteps, Minutes per TimeStep {minutes}
 Timesteps per Hour,  6, 10
! <System Convergence Limits>, Minimum System TimeStep {minutes}, Max HVAC Iterations, Minimum Plant Iterations, Maximum Plant Iterations
 System Convergence Limits, 2, 25, 2, 8
! <Simulation Control>, Do Zone Sizing, Do System Sizing, Do Plant Sizing, Do Design Days, Do Weather Simulation, Do HVAC Sizing Simulation
 Simulation Control, Yes, Yes, Yes, Yes, No, No
! <Performance Precision Tradeoffs>, Use Coil Direct Simulation, Zone Radiant Exchange Algorithm, Override Mode, Number of Timestep In Hour, Force Euler Method, Minimum Number of Warmup Days, Force Suppress All Begin Environment Resets, Minimum System Timestep, MaxZoneTempDiff, MaxAllowedDelTemp
 Performance Precision Tradeoffs, No, ScriptF, Normal, 6, No, 1, No, 2.0, 0.300, 2.0000E-003
! <Output Reporting Tolerances>, Tolerance for Time Heating Setpoint Not Met, Tolerance for Zone Cooling Setpoint Not Met Time
 Output Reporting Tolerances, 0.556, 0.556, 
! <Site:GroundTemperature:BuildingSurface>,Jan{C},Feb{C},Mar{C},Apr{C},May{C},Jun{C},Jul{C},Aug{C},Sep{C},Oct{C},Nov{C},Dec{C}
 Site:GroundTemperature:BuildingSurface,  19.53,  19.50,  19.54,  19.60,  20.00,  21.64,  22.23,  22.38,  21.45,  20.12,  19.80,  19.63
! <Site:GroundTemperature:Shallow>,Jan{C},Feb{C},Mar{C},Apr{C},May{C},Jun{C},Jul{C},Aug{C},Sep{C},Oct{C},Nov{C},Dec{C}
 Site:GroundTemperature:Shallow,  13.00,  13.00,  13.00,  13.00,  13.00,  13.00,  13.00,  13.00,  13.00,  13.00,  13.00,  13.00
! <Site:GroundTemperature:Deep>,Jan{C},Feb{C},Mar{C},Apr{C},May{C},Jun{C},Jul{C},Aug{C},Sep{C},Oct{C},Nov{C},Dec{C}
 Site:GroundTemperature:Deep,  16.00,  16.00,  16.00,  16.00,  16.00,  16.00,  16.00,  16.00,  16.00,  16.00,  16.00,  16.00
! <Site:GroundReflectance>,Jan{dimensionless},Feb{dimensionless},Mar{dimensionless},Apr{dimensionless},May{dimensionless},Jun{dimensionless},Jul{dimensionless},Aug{dimensionless},Sep{dimensionless},Oct{dimensionless},Nov{dimensionless},Dec{dimensionless}
 Site:GroundReflectance,  0.20,  0.20,  0.20,  0.20,  0.20,  0.20,  0.20,  0.20,  0.20,  0.20,  0.20,  0.20
! <Site:GroundReflectance:SnowModifier>, Normal, Daylighting {dimensionless}
 Site:GroundReflectance:SnowModifier,   1.000,   1.000
! <Site:GroundReflectance:Snow>,Jan{dimensionless},Feb{dimensionless},Mar{dimensionless},Apr{dimensionless},May{dimensionless},Jun{dimensionless},Jul{dimensionless},Aug{dimensionless},Sep{dimensionless},Oct{dimensionless},Nov{dimensionless},Dec{dimensionless}
 Site:GroundReflectance:Snow,  0.20,  0.20,  0.20,  0.20,  0.20,  0.20,  0.20,  0.20,  0.20,  0.20,  0.20,  0.20
! <Site:GroundReflectance:Snow:Daylighting>,Jan{dimensionless},Feb{dimensionless},Mar{dimensionless},Apr{dimensionless},May{dimensionless},Jun{dimensionless},Jul{dimensionless},Aug{dimensionless},Sep{dimensionless},Oct{dimensionless},Nov{dimensionless},Dec{dimensionless}
 Site:GroundReflectance:Snow:Daylighting,  0.20,  0.20,  0.20,  0.20,  0.20,  0.20,  0.20,  0.20,  0.20,  0.20,  0.20,  0.20
! <Environment:Weather Station>,Wind Sensor Height Above Ground {m},Wind Speed Profile Exponent {},Wind Speed Profile Boundary Layer Thickness {m},Air Temperature Sensor Height Above Ground {m},Wind Speed Modifier Coefficient-Internal,Temperature Modifier Coefficient-Internal
Environment:Weather Station,10.000,0.140,270.000,1.500,1.586,9.750E-003
! <Site:Location>, Location Name, Latitude {N+/S- Deg}, Longitude {E+/W- Deg},  Time Zone Number {GMT+/-}, Elevation {m},  Standard Pressure at Elevation {Pa}, Standard RhoAir at Elevation
Site:Location,USA IL-CHICAGO-OHARE,41.77,-87.75,-6.00,190.00,99063,1.1774
! <Site Water Mains Temperature Information>,Calculation Method{},Water Mains Temperature Schedule Name{},Annual Average Outdoor Air Temperature{C},Maximum Difference In Monthly Average Outdoor Air Temperatures{deltaC},Fixed Default Water Mains Temperature{C}
Site Water Mains Temperature Information,Correlation,NA,9.69,28.10,NA
! <Building Information>, Building Name,North Axis {deg},Terrain,  Loads Convergence Tolerance Value,Temperature Convergence Tolerance Value,  Solar Distribution,Maximum Number of Warmup Days,Minimum Number of Warmup Days
 Building Information,Ref Bldg Medium Office New2004_v1.3_5.0,0.000,City,4.00000E-002,0.20000,FullInteriorAndExterior,25,6
! <Inside Convection Algorithm>, Algorithm {Simple | TARP | CeilingDiffuser | AdaptiveConvectionAlgorithm}
Inside Convection Algorithm,TARP
! <Outside Convection Algorithm>, Algorithm {SimpleCombined | TARP | MoWitt | DOE-2 | AdaptiveConvectionAlgorithm}
Outside Convection Algorithm,DOE-2
! <Sky Radiance Distribution>, Value {Anisotropic}
Sky Radiance Distribution,Anisotropic
! <Zone Air Solution Algorithm>, Algorithm {ThirdOrderBackwardDifference | AnalyticalSolution | EulerMethod}, Space Heat Balance Sizing, Space Heat Balance Simulation
 Zone Air Solution Algorithm, AnalyticalSolution, No, No
! <Zone Air Carbon Dioxide Balance Simulation>, Simulation {Yes/No}, Carbon Dioxide Concentration
 Zone Air Carbon Dioxide Balance Simulation, No,N/A
! <Zone Air Generic Contaminant Balance Simulation>, Simulation {Yes/No}, Generic Contaminant Concentration
 Zone Air Generic Contaminant Balance Simulation, No,N/A
! <Zone Air Mass Flow Balance Simulation>, Enforce Mass Balance, Adjust Zone Mixing and Return {AdjustMixingOnly | AdjustReturnOnly | AdjustMixingThenReturn | AdjustReturnThenMixing | None}, Adjust Zone Infiltration {AddInfiltration | AdjustInfiltration | None}, Infiltration Zones {MixingSourceZonesOnly | AllZones}
 Zone Air Mass Flow Balance Simulation, No,N/A,N/A,N/A
! <HVACSystemRootFindingAlgorithm>, Value {RegulaFalsi | Bisection | BisectionThenRegulaFalsi | RegulaFalsiThenBisection}
 HVACSystemRootFindingAlgorithm, RegulaFalsi
! <Environment:Site Atmospheric Variation>,Wind Speed Profile Exponent {},Wind Speed Profile Boundary Layer Thickness {m},Air Temperature Gradient Coefficient {K/m}
Environment:Site Atmospheric Variation,0.330,460.000,6.500000E-003
! <Surface Geometry>,Starting Corner,Vertex Input Direction,Coordinate System,Daylight Reference Point Coordinate System,Rectangular (Simple) Surface Coordinate System
 Surface Geometry,UpperLeftCorner,Counterclockwise,RelativeCoordinateSystem,RelativeCoordinateSystem,RelativeToZoneOrigin
! <Surface Heat Transfer Algorithm>, Value {CTF - ConductionTransferFunction | EMPD - MoisturePenetrationDepthConductionTransferFunction | CondFD - ConductionFiniteDifference | HAMT - CombinedHeatAndMoistureFiniteElement} - Description,Inside Surface Max Temperature Limit{C}, Surface Convection Coefficient Lower Limit {W/m2-K}, Surface Convection Coefficient Upper Limit {W/m2-K}
Surface Heat Transfer Algorithm, CTF - ConductionTransferFunction,200,0.10,1000.0
! <Shading Summary>, Number of Fixed Detached Shades, Number of Building Detached Shades, Number of Attached Shades
 Shading Summary,0,0,0
! <Zone Summary>, Number of Zones, Number of Zone Surfaces, Number of SubSurfaces
 Zone Summary,18,155,12
! <Zone Information>,Zone Name,North Axis {deg},Origin X-Coordinate {m},Origin Y-Coordinate {m},Origin Z-Coordinate {m},Centroid X-Coordinate {m},Centroid Y-Coordinate {m},Centroid Z-Coordinate {m},Type,Zone Multiplier,Zone List Multiplier,Minimum X {m},Maximum X {m},Minimum Y {m},Maximum Y {m},Minimum Z {m},Maximum Z {m},Ceiling Height {m},Volume {m3},Zone Inside Convection Algorithm {Simple-Detailed-CeilingDiffuser-TrombeWall},Zone Outside Convection Algorithm {Simple-Detailed-Tarp-MoWitt-DOE-2-BLAST}, Floor Area {m2},Exterior Gross Wall Area {m2},Exterior Net Wall Area {m2},Exterior Window Area {m2}, Number of Surfaces, Number of SubSurfaces, Number of Shading SubSurfaces,  Part of Total Building Area
 Zone Information, CORE_BOTTOM,0.0,0.00,0.00,0.00,24.96,16.64,1.37,1,1,1,4.57,45.34,4.57,28.70,0.00,2.74,2.74,2698.04,TARP,DOE-2,983.54,0.00,0.00,0.00,6,0,0,Yes
 Zone Information, CORE_MID,0.0,0.00,0.00,0.00,24.96,16.64,5.33,1,1,1,4.57,45.34,4.57,28.70,3.96,6.71,2.74,2698.04,TARP,DOE-2,983.54,0.00,0.00,0.00,6,0,0,Yes
 Zone Information, CORE_TOP,0.0,0.00,0.00,0.00,24.96,16.64,9.30,1,1,1,4.57,45.34,4.57,28.70,7.92,10.67,2.74,2698.04,TARP,DOE-2,983.54,0.00,0.00,0.00,6,0,0,Yes
 Zone Information, FIRSTFLOOR_PLENUM,0.0,0.00,0.00,0.00,24.96,16.64,3.35,1,1,1,0.00,49.91,0.00,33.27,2.74,3.96,1.22,2024.76,TARP,DOE-2,1660.73,202.84,202.84,0.00,14,0,0,No
 Zone Information, MIDFLOOR_PLENUM,0.0,0.00,0.00,0.00,24.96,16.64,7.32,1,1,1,0.00,49.91,0.00,33.27,6.71,7.92,1.22,2024.76,TARP,DOE-2,1660.73,202.84,202.84,0.00,14,0,0,No
 Zone Information, PERIMETER_BOT_ZN_1,0.0,0.00,0.00,0.00,24.96,2.16,1.37,1,1,1,0.00,49.91,0.00,4.57,0.00,2.74,2.74,568.77,TARP,DOE-2,207.34,136.92,71.63,65.28,6,1,0,Yes
 Zone Information, PERIMETER_BOT_ZN_2,0.0,0.00,0.00,0.00,47.82,16.64,1.37,1,1,1,45.34,49.91,0.00,33.27,0.00,2.74,2.74,360.08,TARP,DOE-2,131.26,91.28,47.75,43.52,6,1,0,Yes
 Zone Information, PERIMETER_BOT_ZN_3,0.0,0.00,0.00,0.00,24.96,31.11,1.37,1,1,1,0.00,49.91,28.70,33.27,0.00,2.74,2.74,568.77,TARP,DOE-2,207.34,136.92,71.63,65.28,6,1,0,Yes
 Zone Information, PERIMETER_BOT_ZN_4,0.0,0.00,0.00,0.00,2.09,16.64,1.37,1,1,1,0.00,4.57,0.00,33.27,0.00,2.74,2.74,360.05,TARP,DOE-2,131.25,91.28,47.75,43.52,6,1,0,Yes
 Zone Information, PERIMETER_MID_ZN_1,0.0,0.00,0.00,0.00,24.96,2.16,5.33,1,1,1,0.00,49.91,0.00,4.57,3.96,6.71,2.74,568.77,TARP,DOE-2,207.34,136.92,71.63,65.28,6,1,0,Yes
 Zone Information, PERIMETER_MID_ZN_2,0.0,0.00,0.00,0.00,47.82,16.64,5.33,1,1,1,45.34,49.91,0.00,33.27,3.96,6.71,2.74,360.08,TARP,DOE-2,131.26,91.28,47.75,43.52,6,1,0,Yes
 Zone Information, PERIMETER_MID_ZN_3,0.0,0.00,0.00,0.00,24.96,31.11,5.33,1,1,1,0.00,49.91,28.70,33.27,3.96,6.71,2.74,568.77,TARP,DOE-2,207.34,136.92,71.63,65.28,6,1,0,Yes
 Zone Information, PERIMETER_MID_ZN_4,0.0,0.00,0.00,0.00,2.09,16.64,5.33,1,1,1,0.00,4.57,0.00,33.27,3.96,6.71,2.74,360.05,TARP,DOE-2,131.25,91.28,47.75,43.52,6,1,0,Yes
 Zone Information, PERIMETER_TOP_ZN_1,0.0,0.00,0.00,0.00,24.96,2.16,9.30,1,1,1,0.00,49.91,0.00,4.57,7.92,10.67,2.74,568.77,TARP,DOE-2,207.34,136.92,71.63,65.28,6,1,0,Yes
 Zone Information, PERIMETER_TOP_ZN_2,0.0,0.00,0.00,0.00,47.82,16.64,9.30,1,1,1,45.34,49.91,0.00,33.27,7.92,10.67,2.74,360.08,TARP,DOE-2,131.26,91.28,47.75,43.52,6,1,0,Yes
 Zone Information, PERIMETER_TOP_ZN_3,0.0,0.00,0.00,0.00,24.96,31.11,9.30,1,1,1,0.00,49.91,28.70,33.27,7.92,10.67,2.74,568.77,TARP,DOE-2,207.34,136.92,71.63,65.28,6,1,0,Yes
 Zone Information, PERIMETER_TOP_ZN_4,0.0,0.00,0.00,0.00,2.09,16.64,9.30,1,1,1,0.00,4.57,0.00,33.27,7.92,10.67,2.74,360.05,TARP,DOE-2,131.25,91.28,47.75,43.52,6,1,0,Yes
 Zone Information, TOPFLOOR_PLENUM,0.0,0.00,0.00,0.00,24.96,16.64,11.28,1,1,1,0.00,49.91,0.00,33.27,10.67,11.89,1.22,2024.76,TARP,DOE-2,1660.73,202.84,202.84,0.00,10,0,0,No
! <Zone Internal Gains Nominal>,Zone Name, Floor Area {m2},# Occupants,Area per Occupant {m2/person},Occupant per Area {person/m2},Interior Lighting {W/m2},Electric Load {W/m2},Gas Load {W/m2},Other Load {W/m2},Hot Water Eq {W/m2},Steam Equipment {W/m2},Sum Loads per Area {W/m2},Outdoor Controlled Baseboard Heat
 Zone Internal Gains Nominal, CORE_BOTTOM,983.54,52.9,18.580,5.382E-002,10.760,43.407,0.000,0.000,0.000,0.000,54.167,No
 Zone Internal Gains Nominal, CORE_MID,983.54,52.9,18.580,5.382E-002,10.760,10.760,0.000,0.000,0.000,0.000,21.520,No
 Zone Internal Gains Nominal, CORE_TOP,983.54,52.9,18.580,5.382E-002,10.760,10.760,0.000,0.000,0.000,0.000,21.520,No
 Zone Internal Gains Nominal, FIRSTFLOOR_PLENUM,1660.73,0.0,N/A,0.000,0.000,0.000,0.000,0.000,0.000,0.000,0.000,No
 Zone Internal Gains Nominal, MIDFLOOR_PLENUM,1660.73,0.0,N/A,0.000,0.000,0.000,0.000,0.000,0.000,0.000,0.000,No
 Zone Internal Gains Nominal, PERIMETER_BOT_ZN_1,207.34,11.2,18.580,5.382E-002,10.760,10.760,0.000,0.000,0.000,0.000,21.520,No
 Zone Internal Gains Nominal, PERIMETER_BOT_ZN_2,131.26,7.1,18.580,5.382E-002,10.760,10.760,0.000,0.000,0.000,0.000,21.520,No
 Zone Internal Gains Nominal, PERIMETER_BOT_ZN_3,207.34,11.2,18.580,5.382E-002,10.760,10.760,0.000,0.000,0.000,0.000,21.520,No
 Zone Internal Gains Nominal, PERIMETER_BOT_ZN_4,131.25,7.1,18.580,5.382E-002,10.760,10.760,0.000,0.000,0.000,0.000,21.520,No
 Zone Internal Gains Nominal, PERIMETER_MID_ZN_1,207.34,11.2,18.580,5.382E-002,10.760,10.760,0.000,0.000,0.000,0.000,21.520,No
 Zone Internal Gains Nominal, PERIMETER_MID_ZN_2,131.26,7.1,18.580,5.382E-002,10.760,10.760,0.000,0.000,0.000,0.000,21.520,No
 Zone Internal Gains Nominal, PERIMETER_MID_ZN_3,207.34,11.2,18.580,5.382E-002,10.760,10.760,0.000,0.000,0.000,0.000,21.520,No
 Zone Internal Gains Nominal, PERIMETER_MID_ZN_4,131.25,7.1,18.580,5.382E-002,10.760,10.760,0.000,0.000,0.000,0.000,21.520,No
 Zone Internal Gains Nominal, PERIMETER_TOP_ZN_1,207.34,11.2,18.580,5.382E-002,10.760,10.760,0.000,0.000,0.000,0.000,21.520,No
 Zone Internal Gains Nominal, PERIMETER_TOP_ZN_2,131.26,7.1,18.580,5.382E-002,10.760,10.760,0.000,0.000,0.000,0.000,21.520,No
 Zone Internal Gains Nominal, PERIMETER_TOP_ZN_3,207.34,11.2,18.580,5.382E-002,10.760,10.760,0.000,0.000,0.000,0.000,21.520,No
 Zone Internal Gains Nominal, PERIMETER_TOP_ZN_4,131.25,7.1,18.580,5.382E-002,10.760,10.760,0.000,0.000,0.000,0.000,21.520,No
 Zone Internal Gains Nominal, TOPFLOOR_PLENUM,1660.73,0.0,N/A,0.000,0.000,0.000,0.000,0.000,0.000,0.000,0.000,No
! <People Internal Gains Nominal>,Name,Schedule Name,Zone Name,Zone Floor Area {m2},# Zone Occupants,Number of People {},People/Floor Area {person/m2},Floor Area per person {m2/person},Fraction Radiant,Fraction Convected,Sensible Fraction Calculation,Activity level,ASHRAE 55 Warnings,Carbon Dioxide Generation Rate,Nominal Minimum Number of People,Nominal Maximum Number of People,MRT Calculation Type,Work Efficiency, Clothing Insulation Calculation Method,Clothing Insulation Calculation Method Schedule,Clothing,Air Velocity,Fanger Calculation,Pierce Calculation,KSU Calculation,Cooling Effect Calculation,Ankle Draft Calculation
 People Internal Gains Nominal, CORE_BOTTOM PEOPLE,BLDG_OCC_SCH,CORE_BOTTOM,983.54,52.9,52.9,5.382E-002,18.580,0.300,0.700,AutoCalculate,ACTIVITY_SCH,No,3.8200E-008,0,53,Zone Averaged,WORK_EFF_SCH,Clothing Insulation Schedule,N/A,CLOTHING_SCH,AIR_VELO_SCH,Yes,No,No,No,No
 People Internal Gains Nominal, CORE_MID PEOPLE,BLDG_OCC_SCH,CORE_MID,983.54,52.9,52.9,5.382E-002,18.580,0.300,0.700,AutoCalculate,ACTIVITY_SCH,No,3.8200E-008,0,53,Zone Averaged,WORK_EFF_SCH,Clothing Insulation Schedule,N/A,CLOTHING_SCH,AIR_VELO_SCH,Yes,No,No,No,No
 People Internal Gains Nominal, CORE_TOP PEOPLE,BLDG_OCC_SCH,CORE_TOP,983.54,52.9,52.9,5.382E-002,18.580,0.300,0.700,AutoCalculate,ACTIVITY_SCH,No,3.8200E-008,0,53,Zone Averaged,WORK_EFF_SCH,Clothing Insulation Schedule,N/A,CLOTHING_SCH,AIR_VELO_SCH,Yes,No,No,No,No
 People Internal Gains Nominal, PERIMETER_BOT_ZN_1 PEOPLE,BLDG_OCC_SCH,PERIMETER_BOT_ZN_1,207.34,11.2,11.2,5.382E-002,18.580,0.300,0.700,AutoCalculate,ACTIVITY_SCH,No,3.8200E-008,0,11,Zone Averaged,WORK_EFF_SCH,Clothing Insulation Schedule,N/A,CLOTHING_SCH,AIR_VELO_SCH,Yes,No,No,No,No
 People Internal Gains Nominal, PERIMETER_BOT_ZN_2 PEOPLE,BLDG_OCC_SCH,PERIMETER_BOT_ZN_2,131.26,7.1,7.1,5.382E-002,18.580,0.300,0.700,AutoCalculate,ACTIVITY_SCH,No,3.8200E-008,0,7,Zone Averaged,WORK_EFF_SCH,Clothing Insulation Schedule,N/A,CLOTHING_SCH,AIR_VELO_SCH,Yes,No,No,No,No
 People Internal Gains Nominal, PERIMETER_BOT_ZN_3 PEOPLE,BLDG_OCC_SCH,PERIMETER_BOT_ZN_3,207.34,11.2,11.2,5.382E-002,18.580,0.300,0.700,AutoCalculate,ACTIVITY_SCH,No,3.8200E-008,0,11,Zone Averaged,WORK_EFF_SCH,Clothing Insulation Schedule,N/A,CLOTHING_SCH,AIR_VELO_SCH,Yes,No,No,No,No
 People Internal Gains Nominal, PERIMETER_BOT_ZN_4 PEOPLE,BLDG_OCC_SCH,PERIMETER_BOT_ZN_4,131.25,7.1,7.1,5.382E-002,18.580,0.300,0.700,AutoCalculate,ACTIVITY_SCH,No,3.8200E-008,0,7,Zone Averaged,WORK_EFF_SCH,Clothing Insulation Schedule,N/A,CLOTHING_SCH,AIR_VELO_SCH,Yes,No,No,No,No
 People Internal Gains Nominal, PERIMETER_MID_ZN_1 PEOPLE,BLDG_OCC_SCH,PERIMETER_MID_ZN_1,207.34,11.2,11.2,5.382E-002,18.580,0.300,0.700,AutoCalculate,ACTIVITY_SCH,No,3.8200E-008,0,11,Zone Averaged,WORK_EFF_SCH,Clothing Insulation Schedule,N/A,CLOTHING_SCH,AIR_VELO_SCH,Yes,No,No,No,No
 People Internal Gains Nominal, PERIMETER_MID_ZN_2 PEOPLE,BLDG_OCC_SCH,PERIMETER_MID_ZN_2,131.26,7.1,7.1,5.382E-002,18.580,0.300,0.700,AutoCalculate,ACTIVITY_SCH,No,3.8200E-008,0,7,Zone Averaged,WORK_EFF_SCH,Clothing Insulation Schedule,N/A,CLOTHING_SCH,AIR_VELO_SCH,Yes,No,No,No,No
 People Internal Gains Nominal, PERIMETER_MID_ZN_3 PEOPLE,BLDG_OCC_SCH,PERIMETER_MID_ZN_3,207.34,11.2,11.2,5.382E-002,18.580,0.300,0.700,AutoCalculate,ACTIVITY_SCH,No,3.8200E-008,0,11,Zone Averaged,WORK_EFF_SCH,Clothing Insulation Schedule,N/A,CLOTHING_SCH,AIR_VELO_SCH,Yes,No,No,No,No
 People Internal Gains Nominal, PERIMETER_MID_ZN_4 PEOPLE,BLDG_OCC_SCH,PERIMETER_MID_ZN_4,131.25,7.1,7.1,5.382E-002,18.580,0.300,0.700,AutoCalculate,ACTIVITY_SCH,No,3.8200E-008,0,7,Zone Averaged,WORK_EFF_SCH,Clothing Insulation Schedule,N/A,CLOTHING_SCH,AIR_VELO_SCH,Yes,No,No,No,No
 People Internal Gains Nominal, PERIMETER_TOP_ZN_1 PEOPLE,BLDG_OCC_SCH,PERIMETER_TOP_ZN_1,207.34,11.2,11.2,5.382E-002,18.580,0.300,0.700,AutoCalculate,ACTIVITY_SCH,No,3.8200E-008,0,11,Zone Averaged,WORK_EFF_SCH,Clothing Insulation Schedule,N/A,CLOTHING_SCH,AIR_VELO_SCH,Yes,No,No,No,No
 People Internal Gains Nominal, PERIMETER_TOP_ZN_2 PEOPLE,BLDG_OCC_SCH,PERIMETER_TOP_ZN_2,131.26,7.1,7.1,5.382E-002,18.580,0.300,0.700,AutoCalculate,ACTIVITY_SCH,No,3.8200E-008,0,7,Zone Averaged,WORK_EFF_SCH,Clothing Insulation Schedule,N/A,CLOTHING_SCH,AIR_VELO_SCH,Yes,No,No,No,No
 People Internal Gains Nominal, PERIMETER_TOP_ZN_3 PEOPLE,BLDG_OCC_SCH,PERIMETER_TOP_ZN_3,207.34,11.2,11.2,5.382E-002,18.580,0.300,0.700,AutoCalculate,ACTIVITY_SCH,No,3.8200E-008,0,11,Zone Averaged,WORK_EFF_SCH,Clothing Insulation Schedule,N/A,CLOTHING_SCH,AIR_VELO_SCH,Yes,No,No,No,No
 People Internal Gains Nominal, PERIMETER_TOP_ZN_4 PEOPLE,BLDG_OCC_SCH,PERIMETER_TOP_ZN_4,131.25,7.1,7.1,5.382E-002,18.580,0.300,0.700,AutoCalculate,ACTIVITY_SCH,No,3.8200E-008,0,7,Zone Averaged,WORK_EFF_SCH,Clothing Insulation Schedule,N/A,CLOTHING_SCH,AIR_VELO_SCH,Yes,No,No,No,No
! <Lights Internal Gains Nominal>,Name,Schedule Name,Zone Name,Zone Floor Area {m2},# Zone Occupants,Lighting Level {W},Lights/Floor Area {W/m2},Lights per person {W/person},Fraction Return Air,Fraction Radiant,Fraction Short Wave,Fraction Convected,Fraction Replaceable,End-Use Category,Nominal Minimum Lighting Level {W},Nominal Maximum Lighting Level {W}
 Lights Internal Gains Nominal, CORE_BOTTOM_LIGHTS,BLDG_LIGHT_SCH,CORE_BOTTOM,983.54,52.9,10582.854,10.760,199.921,0.400,0.400,0.200,0.000,1.000,General,0.000,10582.854
 Lights Internal Gains Nominal, CORE_MID_LIGHTS,BLDG_LIGHT_SCH,CORE_MID,983.54,52.9,10582.854,10.760,199.921,0.400,0.400,0.200,0.000,1.000,General,0.000,10582.854
 Lights Internal Gains Nominal, CORE_TOP_LIGHTS,BLDG_LIGHT_SCH,CORE_TOP,983.54,52.9,10582.854,10.760,199.921,0.400,0.400,0.200,0.000,1.000,General,0.000,10582.854
 Lights Internal Gains Nominal, PERIMETER_BOT_ZN_1_LIGHTS,BLDG_LIGHT_SCH,PERIMETER_BOT_ZN_1,207.34,11.2,2230.958,10.760,199.921,0.400,0.400,0.200,0.000,1.000,General,0.000,2230.958
 Lights Internal Gains Nominal, PERIMETER_BOT_ZN_2_LIGHTS,BLDG_LIGHT_SCH,PERIMETER_BOT_ZN_2,131.26,7.1,1412.381,10.760,199.921,0.400,0.400,0.200,0.000,1.000,General,0.000,1412.381
 Lights Internal Gains Nominal, PERIMETER_BOT_ZN_3_LIGHTS,BLDG_LIGHT_SCH,PERIMETER_BOT_ZN_3,207.34,11.2,2230.958,10.760,199.921,0.400,0.400,0.200,0.000,1.000,General,0.000,2230.958
 Lights Internal Gains Nominal, PERIMETER_BOT_ZN_4_LIGHTS,BLDG_LIGHT_SCH,PERIMETER_BOT_ZN_4,131.25,7.1,1412.289,10.760,199.921,0.400,0.400,0.200,0.000,1.000,General,0.000,1412.289
 Lights Internal Gains Nominal, PERIMETER_MID_ZN_1_LIGHTS,BLDG_LIGHT_SCH,PERIMETER_MID_ZN_1,207.34,11.2,2230.958,10.760,199.921,0.400,0.400,0.200,0.000,1.000,General,0.000,2230.958
 Lights Internal Gains Nominal, PERIMETER_MID_ZN_2_LIGHTS,BLDG_LIGHT_SCH,PERIMETER_MID_ZN_2,131.26,7.1,1412.381,10.760,199.921,0.400,0.400,0.200,0.000,1.000,General,0.000,1412.381
 Lights Internal Gains Nominal, PERIMETER_MID_ZN_3_LIGHTS,BLDG_LIGHT_SCH,PERIMETER_MID_ZN_3,207.34,11.2,2230.958,10.760,199.921,0.400,0.400,0.200,0.000,1.000,General,0.000,2230.958
 Lights Internal Gains Nominal, PERIMETER_MID_ZN_4_LIGHTS,BLDG_LIGHT_SCH,PERIMETER_MID_ZN_4,131.25,7.1,1412.289,10.760,199.921,0.400,0.400,0.200,0.000,1.000,General,0.000,1412.289
 Lights Internal Gains Nominal, PERIMETER_TOP_ZN_1_LIGHTS,BLDG_LIGHT_SCH,PERIMETER_TOP_ZN_1,207.34,11.2,2230.958,10.760,199.921,0.400,0.400,0.200,0.000,1.000,General,0.000,2230.958
 Lights Internal Gains Nominal, PERIMETER_TOP_ZN_2_LIGHTS,BLDG_LIGHT_SCH,PERIMETER_TOP_ZN_2,131.26,7.1,1412.381,10.760,199.921,0.400,0.400,0.200,0.000,1.000,General,0.000,1412.381
 Lights Internal Gains Nominal, PERIMETER_TOP_ZN_3_LIGHTS,BLDG_LIGHT_SCH,PERIMETER_TOP_ZN_3,207.34,11.2,2230.958,10.760,199.921,0.400,0.400,0.200,0.000,1.000,General,0.000,2230.958
 Lights Internal Gains Nominal, PERIMETER_TOP_ZN_4_LIGHTS,BLDG_LIGHT_SCH,PERIMETER_TOP_ZN_4,131.25,7.1,1412.289,10.760,199.921,0.400,0.400,0.200,0.000,1.000,General,0.000,1412.289
! <ElectricEquipment Internal Gains Nominal>,Name,Schedule Name,Zone Name,Zone Floor Area {m2},# Zone Occupants,Equipment Level {W},Equipment/Floor Area {W/m2},Equipment per person {W/person},Fraction Latent,Fraction Radiant,Fraction Lost,Fraction Convected,End-Use SubCategory,Nominal Minimum Equipment Level {W},Nominal Maximum Equipment Level {W}
 ElectricEquipment Internal Gains Nominal, CORE_BOTTOM_ELEVATORS_EQUIP,BLDG_ELEVATORS,CORE_BOTTOM,983.54,52.9,32109.890,32.647,606.588,0.000,0.500,0.000,0.500,Elevators,0.000,22155.824
 ElectricEquipment Internal Gains Nominal, CORE_BOTTOM_PLUGMISC_EQUIP,BLDG_EQUIP_SCH,CORE_BOTTOM,983.54,52.9,10582.854,10.760,199.921,0.000,0.500,0.000,0.500,General,0.000,10582.854
 ElectricEquipment Internal Gains Nominal, CORE_MID_PLUGMISC_EQUIP,BLDG_EQUIP_SCH,CORE_MID,983.54,52.9,10582.854,10.760,199.921,0.000,0.500,0.000,0.500,General,0.000,10582.854
 ElectricEquipment Internal Gains Nominal, CORE_TOP_PLUGMISC_EQUIP,BLDG_EQUIP_SCH,CORE_TOP,983.54,52.9,10582.854,10.760,199.921,0.000,0.500,0.000,0.500,General,0.000,10582.854
 ElectricEquipment Internal Gains Nominal, PERIMETER_BOT_ZN_1_PLUGMISC_EQUIP,BLDG_EQUIP_SCH,PERIMETER_BOT_ZN_1,207.34,11.2,2230.958,10.760,199.921,0.000,0.500,0.000,0.500,General,0.000,2230.958
 ElectricEquipment Internal Gains Nominal, PERIMETER_BOT_ZN_2_PLUGMISC_EQUIP,BLDG_EQUIP_SCH,PERIMETER_BOT_ZN_2,131.26,7.1,1412.381,10.760,199.921,0.000,0.500,0.000,0.500,General,0.000,1412.381
 ElectricEquipment Internal Gains Nominal, PERIMETER_BOT_ZN_3_PLUGMISC_EQUIP,BLDG_EQUIP_SCH,PERIMETER_BOT_ZN_3,207.34,11.2,2230.958,10.760,199.921,0.000,0.500,0.000,0.500,General,0.000,2230.958
 ElectricEquipment Internal Gains Nominal, PERIMETER_BOT_ZN_4_PLUGMISC_EQUIP,BLDG_EQUIP_SCH,PERIMETER_BOT_ZN_4,131.25,7.1,1412.289,10.760,199.921,0.000,0.500,0.000,0.500,General,0.000,1412.289
 ElectricEquipment Internal Gains Nominal, PERIMETER_MID_ZN_1_PLUGMISC_EQUIP,BLDG_EQUIP_SCH,PERIMETER_MID_ZN_1,207.34,11.2,2230.958,10.760,199.921,0.000,0.500,0.000,0.500,General,0.000,2230.958
 ElectricEquipment Internal Gains Nominal, PERIMETER_MID_ZN_2_PLUGMISC_EQUIP,BLDG_EQUIP_SCH,PERIMETER_MID_ZN_2,131.26,7.1,1412.381,10.760,199.921,0.000,0.500,0.000,0.500,General,0.000,1412.381
 ElectricEquipment Internal Gains Nominal, PERIMETER_MID_ZN_3_PLUGMISC_EQUIP,BLDG_EQUIP_SCH,PERIMETER_MID_ZN_3,207.34,11.2,2230.958,10.760,199.921,0.000,0.500,0.000,0.500,General,0.000,2230.958
 ElectricEquipment Internal Gains Nominal, PERIMETER_MID_ZN_4_PLUGMISC_EQUIP,BLDG_EQUIP_SCH,PERIMETER_MID_ZN_4,131.25,7.1,1412.289,10.760,199.921,0.000,0.500,0.000,0.500,General,0.000,1412.289
 ElectricEquipment Internal Gains Nominal, PERIMETER_TOP_ZN_1_PLUGMISC_EQUIP,BLDG_EQUIP_SCH,PERIMETER_TOP_ZN_1,207.34,11.2,2230.958,10.760,199.921,0.000,0.500,0.000,0.500,General,0.000,2230.958
 ElectricEquipment Internal Gains Nominal, PERIMETER_TOP_ZN_2_PLUGMISC_EQUIP,BLDG_EQUIP_SCH,PERIMETER_TOP_ZN_2,131.26,7.1,1412.381,10.760,199.921,0.000,0.500,0.000,0.500,General,0.000,1412.381
 ElectricEquipment Internal Gains Nominal, PERIMETER_TOP_ZN_3_PLUGMISC_EQUIP,BLDG_EQUIP_SCH,PERIMETER_TOP_ZN_3,207.34,11.2,2230.958,10.760,199.921,0.000,0.500,0.000,0.500,General,0.000,2230.958
 ElectricEquipment Internal Gains Nominal, PERIMETER_TOP_ZN_4_PLUGMISC_EQUIP,BLDG_EQUIP_SCH,PERIMETER_TOP_ZN_4,131.25,7.1,1412.289,10.760,199.921,0.000,0.500,0.000,0.500,General,0.000,1412.289
! <Construction CTF>,Construction Name,Index,#Layers,#CTFs,Time Step {hours},ThermalConductance {w/m2-K},OuterThermalAbsorptance,InnerThermalAbsorptance,OuterSolarAbsorptance,InnerSolarAbsorptance,Roughness
! <Material CTF Summary>,Material Name,Thickness {m},Conductivity {w/m-K},Density {kg/m3},Specific Heat {J/kg-K},ThermalResistance {m2-K/w}
! <Material:Air>,Material Name,ThermalResistance {m2-K/w}
! <CTF>,Time,Outside,Cross,Inside,Flux (except final one)
 Construction CTF,DROPCEILING,   1,   1,   3,   0.167,      4.488    ,   0.900,   0.900,   0.700,   0.700,MediumSmooth
 Material CTF Summary,STD AC02,  0.0127,         0.057,    288.000,     1339.000,  0.2228    
 CTF,   3,     -0.21589802E-09,      0.15643069E-09,     -0.21589802E-09,      0.12866065E-21
 CTF,   2,      0.50772448E-02,      0.30006816E-02,      0.50772448E-02,     -0.13693132E-08
 CTF,   1,      -2.5944910    ,       1.4597758    ,      -2.5944910    ,      0.76344767E-02
 CTF,   0,       7.0433378    ,       2.9911476    ,       7.0433378    
 Construction CTF,IEAD NON-RES ROOF,   2,   3,   9,   0.167,     0.3762    ,   0.900,   0.900,   0.700,   0.700,VeryRough
 Material CTF Summary,ROOF MEMBRANE,  0.0095,         0.160,   1121.290,     1460.000,  0.5938E-01
 Material CTF Summary,IEAD NONRES ROOF INSULATION,  0.1273,         0.049,    265.000,      836.800,   2.599    
 Material CTF Summary,METAL DECKING,  0.0015,        45.006,   7680.000,      418.400,  0.3333E-04
 CTF,   9,     -0.73923653E-07,     -0.21620315E-10,     -0.69949434E-06,     -0.16801292E-16
 CTF,   8,      0.89750309E-02,     -0.25106804E-10,      0.22785492E-01,     -0.61394285E-07
 CTF,   7,     -0.31776690    ,      0.90301243E-08,     -0.47457739    ,      0.19997781E-02
 CTF,   6,       3.7652717    ,      0.17662711E-05,       4.1458402    ,     -0.39052418E-01
 CTF,   5,      -21.941967    ,      0.42714291E-04,      -19.787423    ,      0.31358733    
 CTF,   4,       71.692355    ,      0.24001371E-03,       56.338135    ,      -1.3372295    
 CTF,   3,      -137.28453    ,      0.37549026E-03,      -97.924094    ,       3.2607493    
 CTF,   2,       152.44070    ,      0.15630019E-03,       101.53523    ,      -4.5379569    
 CTF,   1,      -90.630944    ,      0.12580635E-04,      -57.517609    ,       3.3356991    
 CTF,   0,       22.268744    ,      0.32410604E-07,       13.662541    
 Construction CTF,INT-FLOOR-TOPSIDE,   3,   2,   7,   0.167,      3.401    ,   0.900,   0.900,   0.700,   0.700,Rough
 Material CTF Summary,MAT-CC05 4 HW CONCRETE,  0.1016,         1.311,   2240.000,      836.800,  0.7750E-01
 Material CTF Summary,CP02 CARPET PAD,  0.0000,         0.000,      0.000,        0.000,  0.2165    
 CTF,   7,     -0.13266098E-14,     -0.86646006E-15,     -0.18259737E-12,      0.43272154E-16
 CTF,   6,      0.95648173E-05,      0.67403526E-08,      0.39672115E-06,     -0.52565161E-07
 CTF,   5,     -0.43398581E-02,      0.13231875E-04,     -0.15810679E-03,      0.25331368E-04
 CTF,   4,      0.45486386    ,      0.17387783E-02,      0.16111305E-01,     -0.30058479E-02
 CTF,   3,      -10.642115    ,      0.31345892E-01,     -0.43088243    ,      0.87601945E-01
 CTF,   2,       59.946610    ,      0.96585716E-01,       3.1129731    ,     -0.66319225    
 CTF,   1,      -103.91092    ,      0.48052757E-01,      -6.9248345    ,       1.5257717    
 CTF,   0,       54.335484    ,      0.18545895E-02,       4.4063801    
 Construction CTF,INT-FLOOR-UNDERSIDE,   4,   2,   7,   0.167,      3.401    ,   0.900,   0.900,   0.700,   0.700,VeryRough
 Material CTF Summary,CP02 CARPET PAD,  0.0000,         0.000,      0.000,        0.000,  0.2165    
 Material CTF Summary,MAT-CC05 4 HW CONCRETE,  0.1016,         1.311,   2240.000,      836.800,  0.7750E-01
 CTF,   7,     -0.18259737E-12,     -0.86646006E-15,     -0.13266098E-14,      0.43272154E-16
 CTF,   6,      0.39672115E-06,      0.67403526E-08,      0.95648173E-05,     -0.52565161E-07
 CTF,   5,     -0.15810679E-03,      0.13231875E-04,     -0.43398581E-02,      0.25331368E-04
 CTF,   4,      0.16111305E-01,      0.17387783E-02,      0.45486386    ,     -0.30058479E-02
 CTF,   3,     -0.43088243    ,      0.31345892E-01,      -10.642115    ,      0.87601945E-01
 CTF,   2,       3.1129731    ,      0.96585716E-01,       59.946610    ,     -0.66319225    
 CTF,   1,      -6.9248345    ,      0.48052757E-01,      -103.91092    ,       1.5257717    
 CTF,   0,       4.4063801    ,      0.18545895E-02,       54.335484    
 Construction CTF,INTERIORFURNISHINGS,   5,   1,   9,   0.167,     0.8000    ,   0.900,   0.900,   0.700,   0.700,MediumSmooth
 Material CTF Summary,STD WOOD 6INCH,  0.1500,         0.120,    540.000,     1210.000,   1.250    
 CTF,   9,     -0.27580628E-02,      0.97439085E-12,     -0.27580628E-02,      0.28516790E-03
 CTF,   8,      0.73590997E-01,      0.21837543E-08,      0.73590997E-01,     -0.77836043E-02
 CTF,   7,     -0.82599318    ,      0.23162835E-06,     -0.82599318    ,      0.89703933E-01
 CTF,   6,       5.1113916    ,      0.48671053E-05,       5.1113916    ,     -0.57224845    
 CTF,   5,      -19.214933    ,      0.30163627E-04,      -19.214933    ,       2.2266322    
 CTF,   4,       45.557404    ,      0.63181060E-04,       45.557404    ,      -5.4853312    
 CTF,   3,      -68.275533    ,      0.44785456E-04,      -68.275533    ,       8.5710568    
 CTF,   2,       62.555368    ,      0.93952058E-05,       62.555368    ,      -8.2111738    
 CTF,   1,      -31.904423    ,      0.39200003E-06,      -31.904423    ,       4.3886678    
 CTF,   0,       6.9260389    ,      0.77047652E-09,       6.9260389    
 Construction CTF,STEEL FRAME NON-RES EXT WALL,   6,   3,   9,   0.167,     0.5136    ,   0.900,   0.900,   0.780,   0.920,MediumSmooth
 Material CTF Summary,WOOD SIDING,  0.0100,         0.110,    544.620,     1210.000,  0.9091E-01
 Material CTF Summary,STEEL FRAME NONRES WALL INSULATION,  0.0871,         0.049,    265.000,      836.800,   1.777    
 Material CTF Summary,1/2IN GYPSUM,  0.0127,         0.160,    784.900,      830.000,  0.7937E-01
 CTF,   9,     -0.97752311E-10,     -0.18416207E-14,     -0.81924632E-10,      0.16425258E-15
 CTF,   8,      0.74055869E-04,      0.23841725E-11,      0.89212489E-04,     -0.61828614E-10
 CTF,   7,     -0.51923493E-02,      0.32154179E-07,     -0.60876796E-02,      0.35356738E-04
 CTF,   6,      0.12150771    ,      0.83215585E-05,      0.14294700    ,     -0.14502264E-02
 CTF,   5,      -1.3399792    ,      0.28786283E-03,      -1.5915719    ,      0.23553634E-01
 CTF,   4,       7.7820205    ,      0.23090270E-02,       9.3164659    ,     -0.19354862    
 CTF,   3,      -24.578922    ,      0.49884264E-02,      -29.533714    ,      0.85572422    
 CTF,   2,       41.674879    ,      0.27346815E-02,       50.062079    ,      -2.0085446    
 CTF,   1,      -35.260140    ,      0.26809585E-03,      -42.233259    ,       2.3035974    
 CTF,   0,       11.616350    ,      0.10645149E-05,       13.853649    
 Construction CTF,EXT-SLAB,   8,   2,   7,   0.167,      3.401    ,   0.900,   0.900,   0.700,   0.700,Rough
 Material CTF Summary,HW CONCRETE,  0.1016,         1.311,   2240.000,      836.800,  0.7750E-01
 Material CTF Summary,CP02 CARPET PAD,  0.0000,         0.000,      0.000,        0.000,  0.2165    
 CTF,   7,     -0.13266098E-14,     -0.86646006E-15,     -0.18259737E-12,      0.43272154E-16
 CTF,   6,      0.95648173E-05,      0.67403526E-08,      0.39672115E-06,     -0.52565161E-07
 CTF,   5,     -0.43398581E-02,      0.13231875E-04,     -0.15810679E-03,      0.25331368E-04
 CTF,   4,      0.45486386    ,      0.17387783E-02,      0.16111305E-01,     -0.30058479E-02
 CTF,   3,      -10.642115    ,      0.31345892E-01,     -0.43088243    ,      0.87601945E-01
 CTF,   2,       59.946610    ,      0.96585716E-01,       3.1129731    ,     -0.66319225    
 CTF,   1,      -103.91092    ,      0.48052757E-01,      -6.9248345    ,       1.5257717    
 CTF,   0,       54.335484    ,      0.18545895E-02,       4.4063801    
 Construction CTF,INT-WALLS,   9,   2,   4,   0.167,      6.299    ,   0.900,   0.900,   0.920,   0.920,Smooth
 Material CTF Summary,1/2IN GYPSUM,  0.0127,         0.160,    784.900,      830.000,  0.7937E-01
 Material CTF Summary,1/2IN GYPSUM,  0.0127,         0.160,    784.900,      830.000,  0.7937E-01
 CTF,   4,      0.42341651E-12,      0.14393662E-12,      0.42341651E-12,     -0.35783789E-15
 CTF,   3,     -0.36456661E-04,      0.12333878E-04,     -0.36456661E-04,      0.55373637E-12
 CTF,   2,      0.34836671    ,      0.12194966    ,      0.34836671    ,     -0.23789644E-04
 CTF,   1,      -9.4453707    ,       3.2905023    ,      -9.4453707    ,      0.10925271    
 CTF,   0,       14.708197    ,       2.1986921    ,       14.708197    
! <WindowConstruction>,Construction Name,Index,#Layers,Roughness,Conductance {W/m2-K},Conductance (Before Adjusted) {W/m2-K},Convection Coefficient Adjustment Ratio,SHGC,Solar Transmittance at Normal Incidence,Visible Transmittance at Normal Incidence
! <WindowMaterial:Glazing>, Material Name, Optical Data Type, Spectral Data Set Name, Thickness {m}, Solar Transmittance,Front Solar Reflectance, Back Solar Reflectance, Visible Transmittance, Front Visible Reflectance,Back Visible Reflectance,Infrared Transmittance, Front Thermal Emissivity, Back Thermal Emissivity,Conductivity {W/m-K},Dirt Factor,Solar Diffusing
 WindowConstruction,WINDOW NON-RES FIXED,7,1,VerySmooth,3.241,3.241,1.000,0.391
 WindowMaterial:Glazing,NONRES FIXED ASSEMBLY WINDOW,SpectralAverage,,2.00000E-003,0.30403,0.46624,0.46624,0.30403,0.46624,0.46624,0.00000,0.84000,0.84000,1.43749E-002,1.00000,No
! <Shadowing/Sun Position Calculations Annual Simulations>, Shading Calculation Method, Shading Calculation Update Frequency Method, Shading Calculation Update Frequency {days}, Maximum Figures in Shadow Overlap Calculations {}, Polygon Clipping Algorithm, Pixel Counting Resolution, Sky Diffuse Modeling Algorithm, Output External Shading Calculation Results, Disable Self-Shading Within Shading Zone Groups, Disable Self-Shading From Shading Zone Groups to Other Zones
Shadowing/Sun Position Calculations Annual Simulations,PolygonClipping,Periodic,7,15000,SutherlandHodgman,512,SimpleSkyDiffuseModeling,No,No,No
! <Water Heater Information>,Type,Name,Volume {m3},Maximum Capacity {W},Standard Rated Recovery Efficiency, Standard Rated Energy Factor
! <Surface Convection Parameters>, Surface Name, Outside Model Assignment, Outside Area [m2], Outside Perimeter [m], Outside Height [m], Inside Model Assignment, Inside Height [m], Inside Perimeter Envelope [m], Inside Hydraulic Diameter [m], Window Wall Ratio, Window Location, Near Radiant {Yes/No}, Has Active HVAC {Yes/No}
Surface Convection Parameters,CORE_BOT_ZN_5_WALL_EAST,0,0.00,0.00,0.00,0,2.74,0.00,30.31,-999.00,0,No,No
Surface Convection Parameters,CORE_BOT_ZN_5_WALL_NORTH,0,0.00,0.00,0.00,0,2.74,0.00,30.31,-999.00,0,No,No
Surface Convection Parameters,CORE_BOT_ZN_5_WALL_SOUTH,0,0.00,0.00,0.00,0,2.74,0.00,30.31,-999.00,0,No,No
Surface Convection Parameters,CORE_BOT_ZN_5_WALL_WEST,0,0.00,0.00,0.00,0,2.74,0.00,30.31,-999.00,0,No,No
Surface Convection Parameters,CORE_BOT_ZN_5_FLOOR,0,0.00,0.00,0.00,0,2.74,0.00,30.31,-999.00,0,No,No
Surface Convection Parameters,CORE_BOTTOM_CEILING,0,0.00,0.00,0.00,0,2.74,0.00,30.31,-999.00,0,No,No
Surface Convection Parameters,CORE_BOTTOM INTERNAL MASS,0,0.00,0.00,0.00,0,2.74,0.00,30.31,-999.00,0,No,No
Surface Convection Parameters,CORE_MID_ZN_5_WALL_EAST,0,0.00,0.00,0.00,0,2.74,0.00,30.31,-999.00,0,No,No
Surface Convection Parameters,CORE_MID_ZN_5_WALL_NORTH,0,0.00,0.00,0.00,0,2.74,0.00,30.31,-999.00,0,No,No
Surface Convection Parameters,CORE_MID_ZN_5_WALL_SOUTH,0,0.00,0.00,0.00,0,2.74,0.00,30.31,-999.00,0,No,No
Surface Convection Parameters,CORE_MID_ZN_5_WALL_WEST,0,0.00,0.00,0.00,0,2.74,0.00,30.31,-999.00,0,No,No
Surface Convection Parameters,CORE_MID_ZN_5_FLOOR,0,0.00,0.00,0.00,0,2.74,0.00,30.31,-999.00,0,No,No
Surface Convection Parameters,CORE_MID_CEILING,0,0.00,0.00,0.00,0,2.74,0.00,30.31,-999.00,0,No,No
Surface Convection Parameters,CORE_MID INTERNAL MASS,0,0.00,0.00,0.00,0,2.74,0.00,30.31,-999.00,0,No,No
Surface Convection Parameters,CORE_TOP_ZN_5_WALL_EAST,0,0.00,0.00,0.00,0,2.74,0.00,30.31,-999.00,0,No,No
Surface Convection Parameters,CORE_TOP_ZN_5_WALL_NORTH,0,0.00,0.00,0.00,0,2.74,0.00,30.31,-999.00,0,No,No
Surface Convection Parameters,CORE_TOP_ZN_5_WALL_SOUTH,0,0.00,0.00,0.00,0,2.74,0.00,30.31,-999.00,0,No,No
Surface Convection Parameters,CORE_TOP_ZN_5_WALL_WEST,0,0.00,0.00,0.00,0,2.74,0.00,30.31,-999.00,0,No,No
Surface Convection Parameters,CORE_TOP_ZN_5_FLOOR,0,0.00,0.00,0.00,0,2.74,0.00,30.31,-999.00,0,No,No
Surface Convection Parameters,CORE_TOP_ZN_5_CEILING,0,0.00,0.00,0.00,0,2.74,0.00,30.31,-999.00,0,No,No
Surface Convection Parameters,CORE_TOP INTERNAL MASS,0,0.00,0.00,0.00,0,2.74,0.00,30.31,-999.00,0,No,No
Surface Convection Parameters,PERIMETER_BOT_PLENUM_WALL_EAST,0,395.53,143.75,11.89,0,1.22,166.37,39.93,0.00,0,No,No
Surface Convection Parameters,PERIMETER_BOT_PLENUM_WALL_NORTH,0,593.30,143.75,11.89,0,1.22,166.37,39.93,0.00,0,No,No
Surface Convection Parameters,PERIMETER_BOT_PLENUM_WALL_SOUTH,0,593.30,123.60,11.89,0,1.22,166.37,39.93,0.00,0,No,No
Surface Convection Parameters,PERIMETER_BOT_PLENUM_WALL_WEST,0,395.53,90.32,11.89,0,1.22,166.37,39.93,0.00,0,No,No
Surface Convection Parameters,FIRSTFLOOR_PLENUM_FLOOR_1,0,0.00,0.00,0.00,0,1.22,166.37,39.93,0.00,0,No,No
Surface Convection Parameters,FIRSTFLOOR_PLENUM_FLOOR_2,0,0.00,0.00,0.00,0,1.22,166.37,39.93,0.00,0,No,No
Surface Convection Parameters,FIRSTFLOOR_PLENUM_FLOOR_3,0,0.00,0.00,0.00,0,1.22,166.37,39.93,0.00,0,No,No
Surface Convection Parameters,FIRSTFLOOR_PLENUM_FLOOR_4,0,0.00,0.00,0.00,0,1.22,166.37,39.93,0.00,0,No,No
Surface Convection Parameters,FIRSTFLOOR_PLENUM_FLOOR_5,0,0.00,0.00,0.00,0,1.22,166.37,39.93,0.00,0,No,No
Surface Convection Parameters,FIRSTFLOOR_PLENUM_CEILING_1,0,0.00,0.00,0.00,0,1.22,166.37,39.93,0.00,0,No,No
Surface Convection Parameters,FIRSTFLOOR_PLENUM_CEILING_2,0,0.00,0.00,0.00,0,1.22,166.37,39.93,0.00,0,No,No
Surface Convection Parameters,FIRSTFLOOR_PLENUM_CEILING_3,0,0.00,0.00,0.00,0,1.22,166.37,39.93,0.00,0,No,No
Surface Convection Parameters,FIRSTFLOOR_PLENUM_CEILING_4,0,0.00,0.00,0.00,0,1.22,166.37,39.93,0.00,0,No,No
Surface Convection Parameters,FIRSTFLOOR_PLENUM_CEILING_5,0,0.00,0.00,0.00,0,1.22,166.37,39.93,0.00,0,No,No
Surface Convection Parameters,PERIMETER_MID_PLENUM_WALL_EAST,0,395.53,143.75,11.89,0,1.22,166.37,39.93,0.00,0,No,No
Surface Convection Parameters,PERIMETER_MID_PLENUM_WALL_NORTH,0,593.30,143.75,11.89,0,1.22,166.37,39.93,0.00,0,No,No
Surface Convection Parameters,PERIMETER_MID_PLENUM_WALL_SOUTH,0,593.30,123.60,11.89,0,1.22,166.37,39.93,0.00,0,No,No
Surface Convection Parameters,PERIMETER_MID_PLENUM_WALL_WEST,0,395.53,90.32,11.89,0,1.22,166.37,39.93,0.00,0,No,No
Surface Convection Parameters,MIDFLOOR_PLENUM_FLOOR_1,0,0.00,0.00,0.00,0,1.22,166.37,39.93,0.00,0,No,No
Surface Convection Parameters,MIDFLOOR_PLENUM_FLOOR_2,0,0.00,0.00,0.00,0,1.22,166.37,39.93,0.00,0,No,No
Surface Convection Parameters,MIDFLOOR_PLENUM_FLOOR_3,0,0.00,0.00,0.00,0,1.22,166.37,39.93,0.00,0,No,No
Surface Convection Parameters,MIDFLOOR_PLENUM_FLOOR_4,0,0.00,0.00,0.00,0,1.22,166.37,39.93,0.00,0,No,No
Surface Convection Parameters,MIDFLOOR_PLENUM_FLOOR_5,0,0.00,0.00,0.00,0,1.22,166.37,39.93,0.00,0,No,No
Surface Convection Parameters,MIDFLOOR_PLENUM_CEILING_1,0,0.00,0.00,0.00,0,1.22,166.37,39.93,0.00,0,No,No
Surface Convection Parameters,MIDFLOOR_PLENUM_CEILING_2,0,0.00,0.00,0.00,0,1.22,166.37,39.93,0.00,0,No,No
Surface Convection Parameters,MIDFLOOR_PLENUM_CEILING_3,0,0.00,0.00,0.00,0,1.22,166.37,39.93,0.00,0,No,No
Surface Convection Parameters,MIDFLOOR_PLENUM_CEILING_4,0,0.00,0.00,0.00,0,1.22,166.37,39.93,0.00,0,No,No
Surface Convection Parameters,MIDFLOOR_PLENUM_CEILING_5,0,0.00,0.00,0.00,0,1.22,166.37,39.93,0.00,0,No,No
Surface Convection Parameters,PERIMETER_BOT_ZN_1_WALL_EAST,0,0.00,0.00,0.00,0,2.74,49.91,7.61,0.48,0,No,No
Surface Convection Parameters,PERIMETER_BOT_ZN_1_WALL_NORTH,0,0.00,0.00,0.00,0,2.74,49.91,7.61,0.48,0,No,No
Surface Convection Parameters,PERIMETER_BOT_ZN_1_WALL_SOUTH,0,593.30,123.60,11.89,0,2.74,49.91,7.61,0.48,3,No,No
Surface Convection Parameters,PERIMETER_BOT_ZN_1_WALL_SOUTH_WINDOW,0,593.30,123.60,11.89,0,2.74,49.91,7.61,0.48,2,No,No
Surface Convection Parameters,PERIMETER_BOT_ZN_1_WALL_WEST,0,0.00,0.00,0.00,0,2.74,49.91,7.61,0.48,0,No,No
Surface Convection Parameters,PERIMETER_BOT_ZN_1_FLOOR,0,0.00,0.00,0.00,0,2.74,49.91,7.61,0.48,0,No,No
Surface Convection Parameters,PERIMETER_BOT_ZN_1_CEILING,0,0.00,0.00,0.00,0,2.74,49.91,7.61,0.48,0,No,No
Surface Convection Parameters,PERIMETER_BOT_ZN_1 INTERNAL MASS,0,0.00,0.00,0.00,0,2.74,49.91,7.61,0.48,0,No,No
Surface Convection Parameters,PERIMETER_BOT_ZN_2_WALL_EAST,0,395.53,143.75,11.89,0,2.74,33.27,6.94,0.48,3,No,No
Surface Convection Parameters,PERIMETER_BOT_ZN_2_WALL_EAST_WINDOW,0,395.53,143.75,11.89,0,2.74,33.27,6.94,0.48,2,No,No
Surface Convection Parameters,PERIMETER_BOT_ZN_2_WALL_NORTH,0,0.00,0.00,0.00,0,2.74,33.27,6.94,0.48,0,No,No
Surface Convection Parameters,PERIMETER_BOT_ZN_2_WALL_SOUTH,0,0.00,0.00,0.00,0,2.74,33.27,6.94,0.48,0,No,No
Surface Convection Parameters,PERIMETER_BOT_ZN_2_WALL_WEST,0,0.00,0.00,0.00,0,2.74,33.27,6.94,0.48,0,No,No
Surface Convection Parameters,PERIMETER_BOT_ZN_2_FLOOR,0,0.00,0.00,0.00,0,2.74,33.27,6.94,0.48,0,No,No
Surface Convection Parameters,PERIMETER_BOT_ZN_2_CEILING,0,0.00,0.00,0.00,0,2.74,33.27,6.94,0.48,0,No,No
Surface Convection Parameters,PERIMETER_BOT_ZN_2 INTERNAL MASS,0,0.00,0.00,0.00,0,2.74,33.27,6.94,0.48,0,No,No
Surface Convection Parameters,PERIMETER_BOT_ZN_3_WALL_EAST,0,0.00,0.00,0.00,0,2.74,49.91,7.61,0.48,0,No,No
Surface Convection Parameters,PERIMETER_BOT_ZN_3_WALL_NORTH,0,593.30,143.75,11.89,0,2.74,49.91,7.61,0.48,3,No,No
Surface Convection Parameters,PERIMETER_BOT_ZN_3_WALL_NORTH_WINDOW,0,593.30,143.75,11.89,0,2.74,49.91,7.61,0.48,2,No,No
Surface Convection Parameters,PERIMETER_BOT_ZN_3_WALL_SOUTH,0,0.00,0.00,0.00,0,2.74,49.91,7.61,0.48,0,No,No
Surface Convection Parameters,PERIMETER_BOT_ZN_3_WALL_WEST,0,0.00,0.00,0.00,0,2.74,49.91,7.61,0.48,0,No,No
Surface Convection Parameters,PERIMETER_BOT_ZN_3_FLOOR,0,0.00,0.00,0.00,0,2.74,49.91,7.61,0.48,0,No,No
Surface Convection Parameters,PERIMETER_BOT_ZN_3_CEILILNG,0,0.00,0.00,0.00,0,2.74,49.91,7.61,0.48,0,No,No
Surface Convection Parameters,PERIMETER_BOT_ZN_3 INTERNAL MASS,0,0.00,0.00,0.00,0,2.74,49.91,7.61,0.48,0,No,No
Surface Convection Parameters,PERIMETER_BOT_ZN_4_WALL_EAST,0,0.00,0.00,0.00,0,2.74,33.27,6.94,0.48,0,No,No
Surface Convection Parameters,PERIMETER_BOT_ZN_4_WALL_NORTH,0,0.00,0.00,0.00,0,2.74,33.27,6.94,0.48,0,No,No
Surface Convection Parameters,PERIMETER_BOT_ZN_4_WALL_SOUTH,0,0.00,0.00,0.00,0,2.74,33.27,6.94,0.48,0,No,No
Surface Convection Parameters,PERIMETER_BOT_ZN_4_WALL_WEST,0,395.53,90.32,11.89,0,2.74,33.27,6.94,0.48,3,No,No
Surface Convection Parameters,PERIMETER_BOT_ZN_4_WALL_WEST_WINDOW,0,395.53,90.32,11.89,0,2.74,33.27,6.94,0.48,2,No,No
Surface Convection Parameters,PERIMETER_BOT_ZN_4_FLOOR,0,0.00,0.00,0.00,0,2.74,33.27,6.94,0.48,0,No,No
Surface Convection Parameters,PERIMETER_BOT_ZN_4_CEILING,0,0.00,0.00,0.00,0,2.74,33.27,6.94,0.48,0,No,No
Surface Convection Parameters,PERIMETER_BOT_ZN_4 INTERNAL MASS,0,0.00,0.00,0.00,0,2.74,33.27,6.94,0.48,0,No,No
Surface Convection Parameters,PERIMETER_MID_ZN_1_WALL_EAST,0,0.00,0.00,0.00,0,2.74,49.91,7.61,0.48,0,No,No
Surface Convection Parameters,PERIMETER_MID_ZN_1_WALL_NORTH,0,0.00,0.00,0.00,0,2.74,49.91,7.61,0.48,0,No,No
Surface Convection Parameters,PERIMETER_MID_ZN_1_WALL_SOUTH,0,593.30,123.60,11.89,0,2.74,49.91,7.61,0.48,3,No,No
Surface Convection Parameters,PERIMETER_MID_ZN_1_WALL_SOUTH_WINDOW,0,593.30,123.60,11.89,0,2.74,49.91,7.61,0.48,2,No,No
Surface Convection Parameters,PERIMETER_MID_ZN_1_WALL_WEST,0,0.00,0.00,0.00,0,2.74,49.91,7.61,0.48,0,No,No
Surface Convection Parameters,PERIMETER_MID_ZN_1_FLOOR,0,0.00,0.00,0.00,0,2.74,49.91,7.61,0.48,0,No,No
Surface Convection Parameters,PERIMETER_MID_ZN_1_CEILING,0,0.00,0.00,0.00,0,2.74,49.91,7.61,0.48,0,No,No
Surface Convection Parameters,PERIMETER_MID_ZN_1 INTERNAL MASS,0,0.00,0.00,0.00,0,2.74,49.91,7.61,0.48,0,No,No
Surface Convection Parameters,PERIMETER_MID_ZN_2_WALL_EAST,0,395.53,143.75,11.89,0,2.74,33.27,6.94,0.48,3,No,No
Surface Convection Parameters,PERIMETER_MID_ZN_2_WALL_EAST_WINDOW,0,395.53,143.75,11.89,0,2.74,33.27,6.94,0.48,2,No,No
Surface Convection Parameters,PERIMETER_MID_ZN_2_WALL_NORTH,0,0.00,0.00,0.00,0,2.74,33.27,6.94,0.48,0,No,No
Surface Convection Parameters,PERIMETER_MID_ZN_2_WALL_SOUTH,0,0.00,0.00,0.00,0,2.74,33.27,6.94,0.48,0,No,No
Surface Convection Parameters,PERIMETER_MID_ZN_2_WALL_WEST,0,0.00,0.00,0.00,0,2.74,33.27,6.94,0.48,0,No,No
Surface Convection Parameters,PERIMETER_MID_ZN_2_FLOOR,0,0.00,0.00,0.00,0,2.74,33.27,6.94,0.48,0,No,No
Surface Convection Parameters,PERIMETER_MID_ZN_2_CEILING,0,0.00,0.00,0.00,0,2.74,33.27,6.94,0.48,0,No,No
Surface Convection Parameters,PERIMETER_MID_ZN_2 INTERNAL MASS,0,0.00,0.00,0.00,0,2.74,33.27,6.94,0.48,0,No,No
Surface Convection Parameters,PERIMETER_MID_ZN_3_WALL_EAST,0,0.00,0.00,0.00,0,2.74,49.91,7.61,0.48,0,No,No
Surface Convection Parameters,PERIMETER_MID_ZN_3_WALL_NORTH,0,593.30,143.75,11.89,0,2.74,49.91,7.61,0.48,3,No,No
Surface Convection Parameters,PERIMETER_MID_ZN_3_WALL_NORTH_WINDOW,0,593.30,143.75,11.89,0,2.74,49.91,7.61,0.48,2,No,No
Surface Convection Parameters,PERIMETER_MID_ZN_3_WALL_SOUTH,0,0.00,0.00,0.00,0,2.74,49.91,7.61,0.48,0,No,No
Surface Convection Parameters,PERIMETER_MID_ZN_3_WALL_WEST,0,0.00,0.00,0.00,0,2.74,49.91,7.61,0.48,0,No,No
Surface Convection Parameters,PERIMETER_MID_ZN_3_FLOOR,0,0.00,0.00,0.00,0,2.74,49.91,7.61,0.48,0,No,No
Surface Convection Parameters,PERIMETER_MID_ZN_3_CEILING,0,0.00,0.00,0.00,0,2.74,49.91,7.61,0.48,0,No,No
Surface Convection Parameters,PERIMETER_MID_ZN_3 INTERNAL MASS,0,0.00,0.00,0.00,0,2.74,49.91,7.61,0.48,0,No,No
Surface Convection Parameters,PERIMETER_MID_ZN_4_WALL_EAST,0,0.00,0.00,0.00,0,2.74,33.27,6.94,0.48,0,No,No
Surface Convection Parameters,PERIMETER_MID_ZN_4_WALL_NORTH,0,0.00,0.00,0.00,0,2.74,33.27,6.94,0.48,0,No,No
Surface Convection Parameters,PERIMETER_MID_ZN_4_WALL_SOUTH,0,0.00,0.00,0.00,0,2.74,33.27,6.94,0.48,0,No,No
Surface Convection Parameters,PERIMETER_MID_ZN_4_WALL_WEST,0,395.53,90.32,11.89,0,2.74,33.27,6.94,0.48,3,No,No
Surface Convection Parameters,PERIMETER_MID_ZN_4_WALL_WEST_WINDOW,0,395.53,90.32,11.89,0,2.74,33.27,6.94,0.48,2,No,No
Surface Convection Parameters,PERIMETER_MID_ZN_4_FLOOR,0,0.00,0.00,0.00,0,2.74,33.27,6.94,0.48,0,No,No
Surface Convection Parameters,PERIMETER_MID_ZN_4_CEILING,0,0.00,0.00,0.00,0,2.74,33.27,6.94,0.48,0,No,No
Surface Convection Parameters,PERIMETER_MID_ZN_4 INTERNAL MASS,0,0.00,0.00,0.00,0,2.74,33.27,6.94,0.48,0,No,No
Surface Convection Parameters,PERIMETER_TOP_ZN_1_WALL_EAST,0,0.00,0.00,0.00,0,2.74,49.91,7.61,0.48,0,No,No
Surface Convection Parameters,PERIMETER_TOP_ZN_1_WALL_NORTH,0,0.00,0.00,0.00,0,2.74,49.91,7.61,0.48,0,No,No
Surface Convection Parameters,PERIMETER_TOP_ZN_1_WALL_SOUTH,0,593.30,123.60,11.89,0,2.74,49.91,7.61,0.48,3,No,No
Surface Convection Parameters,PERIMETER_TOP_ZN_1_WALL_SOUTH_WINDOW,0,593.30,123.60,11.89,0,2.74,49.91,7.61,0.48,2,No,No
Surface Convection Parameters,PERIMETER_TOP_ZN_1_WALL_WEST,0,0.00,0.00,0.00,0,2.74,49.91,7.61,0.48,0,No,No
Surface Convection Parameters,PERIMETER_TOP_ZN_1_FLOOR,0,0.00,0.00,0.00,0,2.74,49.91,7.61,0.48,0,No,No
Surface Convection Parameters,PERIMETER_TOP_ZN_1_CEILING,0,0.00,0.00,0.00,0,2.74,49.91,7.61,0.48,0,No,No
Surface Convection Parameters,PERIMETER_TOP_ZN_1 INTERNAL MASS,0,0.00,0.00,0.00,0,2.74,49.91,7.61,0.48,0,No,No
Surface Convection Parameters,PERIMETER_TOP_ZN_2_WALL_EAST,0,395.53,143.75,11.89,0,2.74,33.27,6.94,0.48,3,No,No
Surface Convection Parameters,PERIMETER_TOP_ZN_2_WALL_EAST_WINDOW,0,395.53,143.75,11.89,0,2.74,33.27,6.94,0.48,2,No,No
Surface Convection Parameters,PERIMETER_TOP_ZN_2_WALL_NORTH,0,0.00,0.00,0.00,0,2.74,33.27,6.94,0.48,0,No,No
Surface Convection Parameters,PERIMETER_TOP_ZN_2_WALL_SOUTH,0,0.00,0.00,0.00,0,2.74,33.27,6.94,0.48,0,No,No
Surface Convection Parameters,PERIMETER_TOP_ZN_2_WALL_WEST,0,0.00,0.00,0.00,0,2.74,33.27,6.94,0.48,0,No,No
Surface Convection Parameters,PERIMETER_TOP_ZN_2_FLOOR,0,0.00,0.00,0.00,0,2.74,33.27,6.94,0.48,0,No,No
Surface Convection Parameters,PERIMETER_TOP_ZN_2_CEILING,0,0.00,0.00,0.00,0,2.74,33.27,6.94,0.48,0,No,No
Surface Convection Parameters,PERIMETER_TOP_ZN_2 INTERNAL MASS,0,0.00,0.00,0.00,0,2.74,33.27,6.94,0.48,0,No,No
Surface Convection Parameters,PERIMETER_TOP_ZN_3_WALL_EAST,0,0.00,0.00,0.00,0,2.74,49.91,7.61,0.48,0,No,No
Surface Convection Parameters,PERIMETER_TOP_ZN_3_WALL_NORTH,0,593.30,143.75,11.89,0,2.74,49.91,7.61,0.48,3,No,No
Surface Convection Parameters,PERIMETER_TOP_ZN_3_WALL_NORTH_WINDOW,0,593.30,143.75,11.89,0,2.74,49.91,7.61,0.48,2,No,No
Surface Convection Parameters,PERIMETER_TOP_ZN_3_WALL_SOUTH,0,0.00,0.00,0.00,0,2.74,49.91,7.61,0.48,0,No,No
Surface Convection Parameters,PERIMETER_TOP_ZN_3_WALL_WEST,0,0.00,0.00,0.00,0,2.74,49.91,7.61,0.48,0,No,No
Surface Convection Parameters,PERIMETER_TOP_ZN_3_FLOOR,0,0.00,0.00,0.00,0,2.74,49.91,7.61,0.48,0,No,No
Surface Convection Parameters,PERIMETER_TOP_ZN_3_CEILING,0,0.00,0.00,0.00,0,2.74,49.91,7.61,0.48,0,No,No
Surface Convection Parameters,PERIMETER_TOP_ZN_3 INTERNAL MASS,0,0.00,0.00,0.00,0,2.74,49.91,7.61,0.48,0,No,No
Surface Convection Parameters,PERIMETER_TOP_ZN_4_WALL_EAST,0,0.00,0.00,0.00,0,2.74,33.27,6.94,0.48,0,No,No
Surface Convection Parameters,PERIMETER_TOP_ZN_4_WALL_NORTH,0,0.00,0.00,0.00,0,2.74,33.27,6.94,0.48,0,No,No
Surface Convection Parameters,PERIMETER_TOP_ZN_4_WALL_SOUTH,0,0.00,0.00,0.00,0,2.74,33.27,6.94,0.48,0,No,No
Surface Convection Parameters,PERIMETER_TOP_ZN_4_WALL_WEST,0,395.53,90.32,11.89,0,2.74,33.27,6.94,0.48,3,No,No
Surface Convection Parameters,PERIMETER_TOP_ZN_4_WALL_WEST_WINDOW,0,395.53,90.32,11.89,0,2.74,33.27,6.94,0.48,2,No,No
Surface Convection Parameters,PERIMETER_TOP_ZN_4_FLOOR,0,0.00,0.00,0.00,0,2.74,33.27,6.94,0.48,0,No,No
Surface Convection Parameters,PERIMETER_TOP_ZN_4_CEILING,0,0.00,0.00,0.00,0,2.74,33.27,6.94,0.48,0,No,No
Surface Convection Parameters,PERIMETER_TOP_ZN_4 INTERNAL MASS,0,0.00,0.00,0.00,0,2.74,33.27,6.94,0.48,0,No,No
Surface Convection Parameters,PERIMETER_TOP_PLENUM_WALL_EAST,0,395.53,143.75,11.89,0,1.22,166.37,39.93,0.00,0,No,No
Surface Convection Parameters,PERIMETER_TOP_PLENUM_WALL_NORTH,0,593.30,143.75,11.89,0,1.22,166.37,39.93,0.00,0,No,No
Surface Convection Parameters,PERIMETER_TOP_PLENUM_WALL_SOUTH,0,593.30,123.60,11.89,0,1.22,166.37,39.93,0.00,0,No,No
Surface Convection Parameters,PERIMETER_TOP_PLENUM_WALL_WEST,0,395.53,90.32,11.89,0,1.22,166.37,39.93,0.00,0,No,No
Surface Convection Parameters,TOPFLOOR_PLENUM_FLOOR_1,0,0.00,0.00,0.00,0,1.22,166.37,39.93,0.00,0,No,No
Surface Convection Parameters,TOPFLOOR_PLENUM_FLOOR_2,0,0.00,0.00,0.00,0,1.22,166.37,39.93,0.00,0,No,No
Surface Convection Parameters,TOPFLOOR_PLENUM_FLOOR_3,0,0.00,0.00,0.00,0,1.22,166.37,39.93,0.00,0,No,No
Surface Convection Parameters,TOPFLOOR_PLENUM_FLOOR_4,0,0.00,0.00,0.00,0,1.22,166.37,39.93,0.00,0,No,No
Surface Convection Parameters,TOPFLOOR_PLENUM_FLOOR_5,0,0.00,0.00,0.00,0,1.22,166.37,39.93,0.00,0,No,No
Surface Convection Parameters,BUILDING_ROOF,0,1660.73,166.37,0.00,0,1.22,166.37,39.93,0.00,0,No,No
! <ZoneInfiltration Airflow Stats Nominal>,Name,Schedule Name,Zone Name, Zone Floor Area {m2}, # Zone Occupants,Design Volume Flow Rate {m3/s},Volume Flow Rate/Floor Area {m3/s-m2},Volume Flow Rate/Exterior Surface Area {m3/s-m2},ACH - Air Changes per Hour,Equation A - Constant Term Coefficient {},Equation B - Temperature Term Coefficient {1/C},Equation C - Velocity Term Coefficient {s/m}, Equation D - Velocity Squared Term Coefficient {s2/m2}
 ZoneInfiltration Airflow Stats Nominal, FIRSTFLOOR_PLENUM_INFILTRATION,INFIL_QUARTER_ON_SCH,FIRSTFLOOR_PLENUM,1660.73,0.0,6.126E-002,3.689E-005,3.020E-004,0.109,1.000,0.000,0.000,0.000
 ZoneInfiltration Airflow Stats Nominal, MIDFLOOR_PLENUM_INFILTRATION,INFIL_QUARTER_ON_SCH,MIDFLOOR_PLENUM,1660.73,0.0,6.126E-002,3.689E-005,3.020E-004,0.109,1.000,0.000,0.000,0.000
 ZoneInfiltration Airflow Stats Nominal, PERIMETER_BOT_ZN_1_INFILTRATION,INFIL_QUARTER_ON_SCH,PERIMETER_BOT_ZN_1,207.34,11.2,4.135E-002,1.994E-004,3.020E-004,0.262,1.000,0.000,0.000,0.000
 ZoneInfiltration Airflow Stats Nominal, PERIMETER_BOT_ZN_2_INFILTRATION,INFIL_QUARTER_ON_SCH,PERIMETER_BOT_ZN_2,131.26,7.1,2.757E-002,2.100E-004,3.020E-004,0.276,1.000,0.000,0.000,0.000
 ZoneInfiltration Airflow Stats Nominal, PERIMETER_BOT_ZN_3_INFILTRATION,INFIL_QUARTER_ON_SCH,PERIMETER_BOT_ZN_3,207.34,11.2,4.135E-002,1.994E-004,3.020E-004,0.262,1.000,0.000,0.000,0.000
 ZoneInfiltration Airflow Stats Nominal, PERIMETER_BOT_ZN_4_INFILTRATION,INFIL_QUARTER_ON_SCH,PERIMETER_BOT_ZN_4,131.25,7.1,2.757E-002,2.100E-004,3.020E-004,0.276,1.000,0.000,0.000,0.000
 ZoneInfiltration Airflow Stats Nominal, PERIMETER_MID_ZN_1_INFILTRATION,INFIL_QUARTER_ON_SCH,PERIMETER_MID_ZN_1,207.34,11.2,4.135E-002,1.994E-004,3.020E-004,0.262,1.000,0.000,0.000,0.000
 ZoneInfiltration Airflow Stats Nominal, PERIMETER_MID_ZN_2_INFILTRATION,INFIL_QUARTER_ON_SCH,PERIMETER_MID_ZN_2,131.26,7.1,2.757E-002,2.100E-004,3.020E-004,0.276,1.000,0.000,0.000,0.000
 ZoneInfiltration Airflow Stats Nominal, PERIMETER_MID_ZN_3_INFILTRATION,INFIL_QUARTER_ON_SCH,PERIMETER_MID_ZN_3,207.34,11.2,4.135E-002,1.994E-004,3.020E-004,0.262,1.000,0.000,0.000,0.000
 ZoneInfiltration Airflow Stats Nominal, PERIMETER_MID_ZN_4_INFILTRATION,INFIL_QUARTER_ON_SCH,PERIMETER_MID_ZN_4,131.25,7.1,2.757E-002,2.100E-004,3.020E-004,0.276,1.000,0.000,0.000,0.000
 ZoneInfiltration Airflow Stats Nominal, PERIMETER_TOP_ZN_1_INFILTRATION,INFIL_QUARTER_ON_SCH,PERIMETER_TOP_ZN_1,207.34,11.2,4.135E-002,1.994E-004,3.020E-004,0.262,1.000,0.000,0.000,0.000
 ZoneInfiltration Airflow Stats Nominal, PERIMETER_TOP_ZN_2_INFILTRATION,INFIL_QUARTER_ON_SCH,PERIMETER_TOP_ZN_2,131.26,7.1,2.757E-002,2.100E-004,3.020E-004,0.276,1.000,0.000,0.000,0.000
 ZoneInfiltration Airflow Stats Nominal, PERIMETER_TOP_ZN_3_INFILTRATION,INFIL_QUARTER_ON_SCH,PERIMETER_TOP_ZN_3,207.34,11.2,4.135E-002,1.994E-004,3.020E-004,0.262,1.000,0.000,0.000,0.000
 ZoneInfiltration Airflow Stats Nominal, PERIMETER_TOP_ZN_4_INFILTRATION,INFIL_QUARTER_ON_SCH,PERIMETER_TOP_ZN_4,131.25,7.1,2.757E-002,2.100E-004,3.020E-004,0.276,1.000,0.000,0.000,0.000
 ZoneInfiltration Airflow Stats Nominal, TOPFLOOR_PLENUM_INFILTRATION,INFIL_QUARTER_ON_SCH,TOPFLOOR_PLENUM,1660.73,0.0,0.563,3.389E-004,3.020E-004,1.001,1.000,0.000,0.000,0.000
! <AirFlow Model>, Simple
 AirFlow Model, Simple
! <RoomAir Model>, Zone Name, Mixing/Mundt/UCSDDV/UCSDCV/UCSDUFI/UCSDUFE/User Defined
RoomAir Model,CORE_BOTTOM,Mixing/Well-Stirred
RoomAir Model,CORE_MID,Mixing/Well-Stirred
RoomAir Model,CORE_TOP,Mixing/Well-Stirred
RoomAir Model,FIRSTFLOOR_PLENUM,Mixing/Well-Stirred
RoomAir Model,MIDFLOOR_PLENUM,Mixing/Well-Stirred
RoomAir Model,PERIMETER_BOT_ZN_1,Mixing/Well-Stirred
RoomAir Model,PERIMETER_BOT_ZN_2,Mixing/Well-Stirred
RoomAir Model,PERIMETER_BOT_ZN_3,Mixing/Well-Stirred
RoomAir Model,PERIMETER_BOT_ZN_4,Mixing/Well-Stirred
RoomAir Model,PERIMETER_MID_ZN_1,Mixing/Well-Stirred
RoomAir Model,PERIMETER_MID_ZN_2,Mixing/Well-Stirred
RoomAir Model,PERIMETER_MID_ZN_3,Mixing/Well-Stirred
RoomAir Model,PERIMETER_MID_ZN_4,Mixing/Well-Stirred
RoomAir Model,PERIMETER_TOP_ZN_1,Mixing/Well-Stirred
RoomAir Model,PERIMETER_TOP_ZN_2,Mixing/Well-Stirred
RoomAir Model,PERIMETER_TOP_ZN_3,Mixing/Well-Stirred
RoomAir Model,PERIMETER_TOP_ZN_4,Mixing/Well-Stirred
RoomAir Model,TOPFLOOR_PLENUM,Mixing/Well-Stirred
! <AirflowNetwork Model:Control>, No Multizone or Distribution/Multizone with Distribution/Multizone without Distribution/Multizone with Distribution only during Fan Operation
AirflowNetwork Model:Control,NoMultizoneOrDistribution
! <Zone Volume Capacitance Multiplier>, Sensible Heat Capacity Multiplier, Moisture Capacity Multiplier, Carbon Dioxide Capacity Multiplier, Generic Contaminant Capacity Multiplier
Zone Volume Capacitance Multiplier,   1.000 ,   1.000,   1.000,   1.000
! <Load Timesteps in Zone Design Calculation Averaging Window>, Value
 Load Timesteps in Zone Design Calculation Averaging Window,    6
! <Heating Sizing Factor Information>, Sizing Factor ID, Value
 Heating Sizing Factor Information, Global,   1.3300    
 Heating Sizing Factor Information, Zone CORE_BOTTOM,   1.3300    
 Heating Sizing Factor Information, Zone CORE_MID,   1.3300    
 Heating Sizing Factor Information, Zone CORE_TOP,   1.3300    
 Heating Sizing Factor Information, Zone PERIMETER_BOT_ZN_1,   1.3300    
 Heating Sizing Factor Information, Zone PERIMETER_BOT_ZN_2,   1.3300    
 Heating Sizing Factor Information, Zone PERIMETER_BOT_ZN_3,   1.3300    
 Heating Sizing Factor Information, Zone PERIMETER_BOT_ZN_4,   1.3300    
 Heating Sizing Factor Information, Zone PERIMETER_MID_ZN_1,   1.3300    
 Heating Sizing Factor Information, Zone PERIMETER_MID_ZN_2,   1.3300    
 Heating Sizing Factor Information, Zone PERIMETER_MID_ZN_3,   1.3300    
 Heating Sizing Factor Information, Zone PERIMETER_MID_ZN_4,   1.3300    
 Heating Sizing Factor Information, Zone PERIMETER_TOP_ZN_1,   1.3300    
 Heating Sizing Factor Information, Zone PERIMETER_TOP_ZN_2,   1.3300    
 Heating Sizing Factor Information, Zone PERIMETER_TOP_ZN_3,   1.3300    
 Heating Sizing Factor Information, Zone PERIMETER_TOP_ZN_4,   1.3300    
! <Cooling Sizing Factor Information>, Sizing Factor ID, Value
 Cooling Sizing Factor Information, Global,   1.3300    
 Cooling Sizing Factor Information, Zone CORE_BOTTOM,   1.3300    
 Cooling Sizing Factor Information, Zone CORE_MID,   1.3300    
 Cooling Sizing Factor Information, Zone CORE_TOP,   1.3300    
 Cooling Sizing Factor Information, Zone PERIMETER_BOT_ZN_1,   1.3300    
 Cooling Sizing Factor Information, Zone PERIMETER_BOT_ZN_2,   1.3300    
 Cooling Sizing Factor Information, Zone PERIMETER_BOT_ZN_3,   1.3300    
 Cooling Sizing Factor Information, Zone PERIMETER_BOT_ZN_4,   1.3300    
 Cooling Sizing Factor Information, Zone PERIMETER_MID_ZN_1,   1.3300    
 Cooling Sizing Factor Information, Zone PERIMETER_MID_ZN_2,   1.3300    
 Cooling Sizing Factor Information, Zone PERIMETER_MID_ZN_3,   1.3300    
 Cooling Sizing Factor Information, Zone PERIMETER_MID_ZN_4,   1.3300    
 Cooling Sizing Factor Information, Zone PERIMETER_TOP_ZN_1,   1.3300    
 Cooling Sizing Factor Information, Zone PERIMETER_TOP_ZN_2,   1.3300    
 Cooling Sizing Factor Information, Zone PERIMETER_TOP_ZN_3,   1.3300    
 Cooling Sizing Factor Information, Zone PERIMETER_TOP_ZN_4,   1.3300    
! <Zone Sizing Information>, Zone Name, Load Type, Calc Des Load {W}, User Des Load {W}, Calc Des Air Flow Rate {m3/s}, User Des Air Flow Rate {m3/s}, Design Day Name, Date/Time of Peak, Temperature at Peak {C}, Humidity Ratio at Peak {kgWater/kgDryAir}, Floor Area {m2}, # Occupants, Calc Outdoor Air Flow Rate {m3/s}, Calc DOAS Heat Addition Rate {W}
 Zone Sizing Information, CORE_BOTTOM, Cooling, 32764.69276, 43577.04137, 2.43491, 3.23844, CHICAGO ANN CLG .4% CONDNS WB=>MDB, 7/21 09:00:00, 25.31500, 1.87863E-002, 983.53657, 52.93523, 0.66169, 0.00000
 Zone Sizing Information, CORE_BOTTOM, Heating, 6219.55855, 8272.01287, 0.17863, 0.66169, CHICAGO ANN HTG 99.6% CONDNS DB, 1/21 06:10:00, -20.60000, 6.12575E-004, 983.53657, 52.93523, 0.66169, 0.00000
 Zone Sizing Information, CORE_MID, Cooling, 32472.31010, 43188.17243, 2.36669, 3.14770, CHICAGO ANN CLG .4% CONDNS WB=>MDB, 7/21 07:00:00, 21.46300, 1.64954E-002, 983.53657, 52.93523, 0.66169, 0.00000
 Zone Sizing Information, CORE_MID, Heating, 8206.66084, 10914.85892, 0.23570, 0.66169, CHICAGO ANN HTG 99.6% CONDNS DB, 1/21 06:10:00, -20.60000, 6.12575E-004, 983.53657, 52.93523, 0.66169, 0.00000
 Zone Sizing Information, CORE_TOP, Cooling, 31958.71912, 42505.09644, 2.32882, 3.09733, CHICAGO ANN CLG .4% CONDNS WB=>MDB, 7/21 07:00:00, 21.46300, 1.64954E-002, 983.53657, 52.93523, 0.66169, 0.00000
 Zone Sizing Information, CORE_TOP, Heating, 27051.60400, 35978.63332, 0.77693, 1.03332, CHICAGO ANN HTG 99.6% CONDNS DB, 1/21 06:10:00, -20.60000, 6.12575E-004, 983.53657, 52.93523, 0.66169, 0.00000
 Zone Sizing Information, PERIMETER_BOT_ZN_1, Cooling, 9822.24382, 13063.58428, 0.72995, 0.97084, CHICAGO ANN CLG .4% CONDNS WB=>MDB, 7/21 13:10:00, 30.75417, 1.87969E-002, 207.33814, 11.15921, 0.13949, 0.00000
 Zone Sizing Information, PERIMETER_BOT_ZN_1, Heating, 9858.50902, 13111.81699, 0.28306, 0.37647, CHICAGO ANN HTG 99.6% CONDNS DB, 1/21 06:00:00, -20.60000, 6.12575E-004, 207.33814, 11.15921, 0.13949, 0.00000
 Zone Sizing Information, PERIMETER_BOT_ZN_2, Cooling, 9449.47346, 12567.79970, 0.70224, 0.93397, CHICAGO ANN CLG .4% CONDNS WB=>MDB, 7/21 08:40:00, 24.63733, 1.87850E-002, 131.26219, 7.06470, 8.83088E-002, 0.00000
 Zone Sizing Information, PERIMETER_BOT_ZN_2, Heating, 6565.50629, 8732.12337, 0.18851, 0.25072, CHICAGO ANN HTG 99.6% CONDNS DB, 1/21 06:00:00, -20.60000, 6.12575E-004, 131.26219, 7.06470, 8.83088E-002, 0.00000
 Zone Sizing Information, PERIMETER_BOT_ZN_3, Cooling, 6302.72153, 8382.61964, 0.46841, 0.62298, CHICAGO ANN CLG .4% CONDNS WB=>MDB, 7/21 18:10:00, 28.36450, 1.87923E-002, 207.33814, 11.15921, 0.13949, 0.00000
 Zone Sizing Information, PERIMETER_BOT_ZN_3, Heating, 9858.44187, 13111.72768, 0.28306, 0.37647, CHICAGO ANN HTG 99.6% CONDNS DB, 1/21 06:00:00, -20.60000, 6.12575E-004, 207.33814, 11.15921, 0.13949, 0.00000
 Zone Sizing Information, PERIMETER_BOT_ZN_4, Cooling, 10397.89857, 13829.20509, 0.77272, 1.02772, CHICAGO ANN CLG .4% CONDNS WB=>MDB, 7/21 17:00:00, 29.70200, 1.87949E-002, 131.25358, 7.06424, 8.83030E-002, 0.00000
 Zone Sizing Information, PERIMETER_BOT_ZN_4, Heating, 6555.02316, 8718.18080, 0.18821, 0.25032, CHICAGO ANN HTG 99.6% CONDNS DB, 1/21 06:00:00, -20.60000, 6.12575E-004, 131.25358, 7.06424, 8.83030E-002, 0.00000
 Zone Sizing Information, PERIMETER_MID_ZN_1, Cooling, 11749.80172, 15627.23628, 0.87319, 1.16135, CHICAGO ANN CLG .4% CONDNS WB=>MDB, 7/21 13:10:00, 30.75417, 1.87969E-002, 207.33814, 11.15921, 0.13949, 0.00000
 Zone Sizing Information, PERIMETER_MID_ZN_1, Heating, 10676.44612, 14199.67335, 0.30655, 0.40771, CHICAGO ANN HTG 99.6% CONDNS DB, 1/21 06:00:00, -20.60000, 6.12575E-004, 207.33814, 11.15921, 0.13949, 0.00000
 Zone Sizing Information, PERIMETER_MID_ZN_2, Cooling, 10871.17958, 14458.66884, 0.80788, 1.07448, CHICAGO ANN CLG .4% CONDNS WB=>MDB, 7/21 08:40:00, 24.63733, 1.87850E-002, 131.26219, 7.06470, 8.83088E-002, 0.00000
 Zone Sizing Information, PERIMETER_MID_ZN_2, Heating, 7053.22523, 9380.78955, 0.20251, 0.26934, CHICAGO ANN HTG 99.6% CONDNS DB, 1/21 06:00:00, -20.60000, 6.12575E-004, 131.26219, 7.06470, 8.83088E-002, 0.00000
 Zone Sizing Information, PERIMETER_MID_ZN_3, Cooling, 8121.23208, 10801.23866, 0.60355, 0.80272, CHICAGO ANN CLG .4% CONDNS WB=>MDB, 7/21 18:10:00, 28.36450, 1.87923E-002, 207.33814, 11.15921, 0.13949, 0.00000
 Zone Sizing Information, PERIMETER_MID_ZN_3, Heating, 10676.40885, 14199.62377, 0.30655, 0.40771, CHICAGO ANN HTG 99.6% CONDNS DB, 1/21 06:00:00, -20.60000, 6.12575E-004, 207.33814, 11.15921, 0.13949, 0.00000
 Zone Sizing Information, PERIMETER_MID_ZN_4, Cooling, 11679.60859, 15533.87942, 0.86796, 1.15439, CHICAGO ANN CLG .4% CONDNS WB=>MDB, 7/21 17:00:00, 29.70200, 1.87949E-002, 131.25358, 7.06424, 8.83030E-002, 0.00000
 Zone Sizing Information, PERIMETER_MID_ZN_4, Heating, 7086.76544, 9425.39803, 0.20348, 0.27063, CHICAGO ANN HTG 99.6% CONDNS DB, 1/21 06:00:00, -20.60000, 6.12575E-004, 131.25358, 7.06424, 8.83030E-002, 0.00000
 Zone Sizing Information, PERIMETER_TOP_ZN_1, Cooling, 12092.36359, 16082.84357, 0.89865, 1.19521, CHICAGO ANN CLG .4% CONDNS WB=>MDB, 7/21 13:20:00, 30.84333, 1.87971E-002, 207.33814, 11.15921, 0.13949, 0.00000
 Zone Sizing Information, PERIMETER_TOP_ZN_1, Heating, 14978.72010, 19921.69774, 0.43008, 0.57201, CHICAGO ANN HTG 99.6% CONDNS DB, 1/21 06:00:00, -20.60000, 6.12575E-004, 207.33814, 11.15921, 0.13949, 0.00000
 Zone Sizing Information, PERIMETER_TOP_ZN_2, Cooling, 10704.12226, 14236.48261, 0.79547, 1.05797, CHICAGO ANN CLG .4% CONDNS WB=>MDB, 7/21 08:40:00, 24.63733, 1.87850E-002, 131.26219, 7.06470, 8.83088E-002, 0.00000
 Zone Sizing Information, PERIMETER_TOP_ZN_2, Heating, 9760.76120, 12981.81240, 0.28026, 0.37274, CHICAGO ANN HTG 99.6% CONDNS DB, 1/21 06:00:00, -20.60000, 6.12575E-004, 131.26219, 7.06470, 8.83088E-002, 0.00000
 Zone Sizing Information, PERIMETER_TOP_ZN_3, Cooling, 9234.53430, 12281.93062, 0.68628, 0.91275, CHICAGO ANN CLG .4% CONDNS WB=>MDB, 7/21 18:20:00, 28.09700, 1.87917E-002, 207.33814, 11.15921, 0.13949, 0.00000
 Zone Sizing Information, PERIMETER_TOP_ZN_3, Heating, 14975.21117, 19917.03086, 0.42998, 0.57188, CHICAGO ANN HTG 99.6% CONDNS DB, 1/21 06:00:00, -20.60000, 6.12575E-004, 207.33814, 11.15921, 0.13949, 0.00000
 Zone Sizing Information, PERIMETER_TOP_ZN_4, Cooling, 12338.24436, 16409.86500, 0.91691, 1.21949, CHICAGO ANN CLG .4% CONDNS WB=>MDB, 7/21 17:00:00, 29.70200, 1.87949E-002, 131.25358, 7.06424, 8.83030E-002, 0.00000
 Zone Sizing Information, PERIMETER_TOP_ZN_4, Heating, 9818.58314, 13058.71558, 0.28192, 0.37495, CHICAGO ANN HTG 99.6% CONDNS DB, 1/21 06:00:00, -20.60000, 6.12575E-004, 131.25358, 7.06424, 8.83030E-002, 0.00000
! <System Sizing Information>, System Name, Load Type, Peak Load Kind, User Design Capacity [W], Calc Des Air Flow Rate [m3/s], User Des Air Flow Rate [m3/s], Design Day Name, Date/Time of Peak
 System Sizing Information, VAV_1, Cooling, Sensible, 101714.77, 6.79395, 6.79395, CHICAGO ANN CLG .4% CONDNS WB=>MDB, 7/21 13:40:00
 System Sizing Information, VAV_1, Heating, Sensible, 45250.38, 1.91567, 1.91567, CHICAGO ANN HTG 99.6% CONDNS DB, 1/21 13:20:00
 System Sizing Information, VAV_2, Cooling, Sensible, 107561.30, 7.34064, 7.34064, CHICAGO ANN CLG .4% CONDNS WB=>MDB, 7/21 15:00:00
 System Sizing Information, VAV_2, Heating, Sensible, 44735.21, 2.01708, 2.01708, CHICAGO ANN HTG 99.6% CONDNS DB, 1/21 18:00:00
 System Sizing Information, VAV_3, Cooling, Sensible, 109622.44, 7.48275, 7.48275, CHICAGO ANN CLG .4% CONDNS WB=>MDB, 7/21 16:00:00
 System Sizing Information, VAV_3, Heating, Sensible, 40121.48, 2.92490, 2.92490, CHICAGO ANN HTG 99.6% CONDNS DB, 1/21 18:00:00
! <Component Sizing Information>, Component Type, Component Name, Input Field Description, Value
 Component Sizing Information, AirTerminal:SingleDuct:VAV:Reheat, CORE_BOTTOM VAV BOX COMPONENT, Design Size Maximum Air Flow Rate [m3/s], 3.23844
 Component Sizing Information, AirTerminal:SingleDuct:VAV:Reheat, CORE_BOTTOM VAV BOX COMPONENT, Design Size Constant Minimum Air Flow Fraction, 0.23142
 Component Sizing Information, AirTerminal:SingleDuct:VAV:Reheat, CORE_BOTTOM VAV BOX COMPONENT, User-Specified Constant Minimum Air Flow Fraction, 0.30000
 Component Sizing Information, AirTerminal:SingleDuct:VAV:Reheat, CORE_BOTTOM VAV BOX COMPONENT, Design Size Minimum Air Flow Rate [m3/s], 0.97153
 Component Sizing Information, AirTerminal:SingleDuct:VAV:Reheat, CORE_BOTTOM VAV BOX COMPONENT, Design Size Maximum Flow per Zone Floor Area during Reheat [m3/s-m2], 9.87793E-004
 Component Sizing Information, AirTerminal:SingleDuct:VAV:Reheat, CORE_BOTTOM VAV BOX COMPONENT, Design Size Maximum Flow Fraction during Reheat [], 0.30000
 Component Sizing Information, Coil:Heating:Electric, CORE_BOTTOM VAV BOX REHEAT COIL, Design Size nominal_capacity [W], 38842.91163
 Component Sizing Information, AirTerminal:SingleDuct:VAV:Reheat, CORE_MID VAV BOX COMPONENT, Design Size Maximum Air Flow Rate [m3/s], 3.14770
 Component Sizing Information, AirTerminal:SingleDuct:VAV:Reheat, CORE_MID VAV BOX COMPONENT, Design Size Constant Minimum Air Flow Fraction, 0.23810
 Component Sizing Information, AirTerminal:SingleDuct:VAV:Reheat, CORE_MID VAV BOX COMPONENT, User-Specified Constant Minimum Air Flow Fraction, 0.30000
 Component Sizing Information, AirTerminal:SingleDuct:VAV:Reheat, CORE_MID VAV BOX COMPONENT, Design Size Minimum Air Flow Rate [m3/s], 0.94431
 Component Sizing Information, AirTerminal:SingleDuct:VAV:Reheat, CORE_MID VAV BOX COMPONENT, Design Size Maximum Flow per Zone Floor Area during Reheat [m3/s-m2], 9.60117E-004
 Component Sizing Information, AirTerminal:SingleDuct:VAV:Reheat, CORE_MID VAV BOX COMPONENT, Design Size Maximum Flow Fraction during Reheat [], 0.30000
 Component Sizing Information, Coil:Heating:Electric, CORE_MID VAV BOX REHEAT COIL, Design Size nominal_capacity [W], 37754.61680
 Component Sizing Information, AirTerminal:SingleDuct:VAV:Reheat, CORE_TOP VAV BOX COMPONENT, Design Size Maximum Air Flow Rate [m3/s], 3.09733
 Component Sizing Information, AirTerminal:SingleDuct:VAV:Reheat, CORE_TOP VAV BOX COMPONENT, Design Size Constant Minimum Air Flow Fraction, 0.24197
 Component Sizing Information, AirTerminal:SingleDuct:VAV:Reheat, CORE_TOP VAV BOX COMPONENT, User-Specified Constant Minimum Air Flow Fraction, 0.30000
 Component Sizing Information, AirTerminal:SingleDuct:VAV:Reheat, CORE_TOP VAV BOX COMPONENT, Design Size Minimum Air Flow Rate [m3/s], 0.92920
 Component Sizing Information, AirTerminal:SingleDuct:VAV:Reheat, CORE_TOP VAV BOX COMPONENT, Design Size Maximum Flow per Zone Floor Area during Reheat [m3/s-m2], 9.44752E-004
 Component Sizing Information, AirTerminal:SingleDuct:VAV:Reheat, CORE_TOP VAV BOX COMPONENT, Design Size Maximum Flow Fraction during Reheat [], 0.30000
 Component Sizing Information, Coil:Heating:Electric, CORE_TOP VAV BOX REHEAT COIL, Design Size nominal_capacity [W], 41313.39619
 Component Sizing Information, AirTerminal:SingleDuct:VAV:Reheat, PERIMETER_BOT_ZN_1 VAV BOX COMPONENT, Design Size Maximum Air Flow Rate [m3/s], 0.97084
 Component Sizing Information, AirTerminal:SingleDuct:VAV:Reheat, PERIMETER_BOT_ZN_1 VAV BOX COMPONENT, Design Size Constant Minimum Air Flow Fraction, 0.20000
 Component Sizing Information, AirTerminal:SingleDuct:VAV:Reheat, PERIMETER_BOT_ZN_1 VAV BOX COMPONENT, User-Specified Constant Minimum Air Flow Fraction, 0.30000
 Component Sizing Information, AirTerminal:SingleDuct:VAV:Reheat, PERIMETER_BOT_ZN_1 VAV BOX COMPONENT, Design Size Minimum Air Flow Rate [m3/s], 0.29125
 Component Sizing Information, AirTerminal:SingleDuct:VAV:Reheat, PERIMETER_BOT_ZN_1 VAV BOX COMPONENT, Design Size Maximum Flow per Zone Floor Area during Reheat [m3/s-m2], 1.40472E-003
 Component Sizing Information, AirTerminal:SingleDuct:VAV:Reheat, PERIMETER_BOT_ZN_1 VAV BOX COMPONENT, Design Size Maximum Flow Fraction during Reheat [], 0.30000
 Component Sizing Information, Coil:Heating:Electric, PERIMETER_BOT_ZN_1 VAV BOX REHEAT COIL, Design Size nominal_capacity [W], 15051.83525
 Component Sizing Information, AirTerminal:SingleDuct:VAV:Reheat, PERIMETER_BOT_ZN_2 VAV BOX COMPONENT, Design Size Maximum Air Flow Rate [m3/s], 0.93397
 Component Sizing Information, AirTerminal:SingleDuct:VAV:Reheat, PERIMETER_BOT_ZN_2 VAV BOX COMPONENT, Design Size Constant Minimum Air Flow Fraction, 0.20000
 Component Sizing Information, AirTerminal:SingleDuct:VAV:Reheat, PERIMETER_BOT_ZN_2 VAV BOX COMPONENT, User-Specified Constant Minimum Air Flow Fraction, 0.30000
 Component Sizing Information, AirTerminal:SingleDuct:VAV:Reheat, PERIMETER_BOT_ZN_2 VAV BOX COMPONENT, Design Size Minimum Air Flow Rate [m3/s], 0.28019
 Component Sizing Information, AirTerminal:SingleDuct:VAV:Reheat, PERIMETER_BOT_ZN_2 VAV BOX COMPONENT, Design Size Maximum Flow per Zone Floor Area during Reheat [m3/s-m2], 2.13460E-003
 Component Sizing Information, AirTerminal:SingleDuct:VAV:Reheat, PERIMETER_BOT_ZN_2 VAV BOX COMPONENT, Design Size Maximum Flow Fraction during Reheat [], 0.30000
 Component Sizing Information, Coil:Heating:Electric, PERIMETER_BOT_ZN_2 VAV BOX REHEAT COIL, Design Size nominal_capacity [W], 11202.39304
 Component Sizing Information, AirTerminal:SingleDuct:VAV:Reheat, PERIMETER_BOT_ZN_3 VAV BOX COMPONENT, Design Size Maximum Air Flow Rate [m3/s], 0.62298
 Component Sizing Information, AirTerminal:SingleDuct:VAV:Reheat, PERIMETER_BOT_ZN_3 VAV BOX COMPONENT, Design Size Constant Minimum Air Flow Fraction, 0.25361
 Component Sizing Information, AirTerminal:SingleDuct:VAV:Reheat, PERIMETER_BOT_ZN_3 VAV BOX COMPONENT, User-Specified Constant Minimum Air Flow Fraction, 0.30000
 Component Sizing Information, AirTerminal:SingleDuct:VAV:Reheat, PERIMETER_BOT_ZN_3 VAV BOX COMPONENT, Design Size Minimum Air Flow Rate [m3/s], 0.18689
 Component Sizing Information, AirTerminal:SingleDuct:VAV:Reheat, PERIMETER_BOT_ZN_3 VAV BOX COMPONENT, Design Size Maximum Flow per Zone Floor Area during Reheat [m3/s-m2], 9.01401E-004
 Component Sizing Information, AirTerminal:SingleDuct:VAV:Reheat, PERIMETER_BOT_ZN_3 VAV BOX COMPONENT, Design Size Maximum Flow Fraction during Reheat [], 0.30000
 Component Sizing Information, Coil:Heating:Electric, PERIMETER_BOT_ZN_3 VAV BOX REHEAT COIL, Design Size nominal_capacity [W], 15051.73271
 Component Sizing Information, AirTerminal:SingleDuct:VAV:Reheat, PERIMETER_BOT_ZN_4 VAV BOX COMPONENT, Design Size Maximum Air Flow Rate [m3/s], 1.02772
 Component Sizing Information, AirTerminal:SingleDuct:VAV:Reheat, PERIMETER_BOT_ZN_4 VAV BOX COMPONENT, Design Size Constant Minimum Air Flow Fraction, 0.20000
 Component Sizing Information, AirTerminal:SingleDuct:VAV:Reheat, PERIMETER_BOT_ZN_4 VAV BOX COMPONENT, User-Specified Constant Minimum Air Flow Fraction, 0.30000
 Component Sizing Information, AirTerminal:SingleDuct:VAV:Reheat, PERIMETER_BOT_ZN_4 VAV BOX COMPONENT, Design Size Minimum Air Flow Rate [m3/s], 0.30831
 Component Sizing Information, AirTerminal:SingleDuct:VAV:Reheat, PERIMETER_BOT_ZN_4 VAV BOX COMPONENT, Design Size Maximum Flow per Zone Floor Area during Reheat [m3/s-m2], 2.34900E-003
 Component Sizing Information, AirTerminal:SingleDuct:VAV:Reheat, PERIMETER_BOT_ZN_4 VAV BOX COMPONENT, Design Size Maximum Flow Fraction during Reheat [], 0.30000
 Component Sizing Information, Coil:Heating:Electric, PERIMETER_BOT_ZN_4 VAV BOX REHEAT COIL, Design Size nominal_capacity [W], 12326.77976
 Component Sizing Information, AirTerminal:SingleDuct:VAV:Reheat, PERIMETER_MID_ZN_1 VAV BOX COMPONENT, Design Size Maximum Air Flow Rate [m3/s], 1.16135
 Component Sizing Information, AirTerminal:SingleDuct:VAV:Reheat, PERIMETER_MID_ZN_1 VAV BOX COMPONENT, Design Size Constant Minimum Air Flow Fraction, 0.20000
 Component Sizing Information, AirTerminal:SingleDuct:VAV:Reheat, PERIMETER_MID_ZN_1 VAV BOX COMPONENT, User-Specified Constant Minimum Air Flow Fraction, 0.30000
 Component Sizing Information, AirTerminal:SingleDuct:VAV:Reheat, PERIMETER_MID_ZN_1 VAV BOX COMPONENT, Design Size Minimum Air Flow Rate [m3/s], 0.34840
 Component Sizing Information, AirTerminal:SingleDuct:VAV:Reheat, PERIMETER_MID_ZN_1 VAV BOX COMPONENT, Design Size Maximum Flow per Zone Floor Area during Reheat [m3/s-m2], 1.68037E-003
 Component Sizing Information, AirTerminal:SingleDuct:VAV:Reheat, PERIMETER_MID_ZN_1 VAV BOX COMPONENT, Design Size Maximum Flow Fraction during Reheat [], 0.30000
 Component Sizing Information, Coil:Heating:Electric, PERIMETER_MID_ZN_1 VAV BOX REHEAT COIL, Design Size nominal_capacity [W], 16300.69313
 Component Sizing Information, AirTerminal:SingleDuct:VAV:Reheat, PERIMETER_MID_ZN_2 VAV BOX COMPONENT, Design Size Maximum Air Flow Rate [m3/s], 1.07448
 Component Sizing Information, AirTerminal:SingleDuct:VAV:Reheat, PERIMETER_MID_ZN_2 VAV BOX COMPONENT, Design Size Constant Minimum Air Flow Fraction, 0.20000
 Component Sizing Information, AirTerminal:SingleDuct:VAV:Reheat, PERIMETER_MID_ZN_2 VAV BOX COMPONENT, User-Specified Constant Minimum Air Flow Fraction, 0.30000
 Component Sizing Information, AirTerminal:SingleDuct:VAV:Reheat, PERIMETER_MID_ZN_2 VAV BOX COMPONENT, Design Size Minimum Air Flow Rate [m3/s], 0.32235
 Component Sizing Information, AirTerminal:SingleDuct:VAV:Reheat, PERIMETER_MID_ZN_2 VAV BOX COMPONENT, Design Size Maximum Flow per Zone Floor Area during Reheat [m3/s-m2], 2.45574E-003
 Component Sizing Information, AirTerminal:SingleDuct:VAV:Reheat, PERIMETER_MID_ZN_2 VAV BOX COMPONENT, Design Size Maximum Flow Fraction during Reheat [], 0.30000
 Component Sizing Information, Coil:Heating:Electric, PERIMETER_MID_ZN_2 VAV BOX REHEAT COIL, Design Size nominal_capacity [W], 12887.73585
 Component Sizing Information, AirTerminal:SingleDuct:VAV:Reheat, PERIMETER_MID_ZN_3 VAV BOX COMPONENT, Design Size Maximum Air Flow Rate [m3/s], 0.80272
 Component Sizing Information, AirTerminal:SingleDuct:VAV:Reheat, PERIMETER_MID_ZN_3 VAV BOX COMPONENT, Design Size Constant Minimum Air Flow Fraction, 0.20000
 Component Sizing Information, AirTerminal:SingleDuct:VAV:Reheat, PERIMETER_MID_ZN_3 VAV BOX COMPONENT, User-Specified Constant Minimum Air Flow Fraction, 0.30000
 Component Sizing Information, AirTerminal:SingleDuct:VAV:Reheat, PERIMETER_MID_ZN_3 VAV BOX COMPONENT, Design Size Minimum Air Flow Rate [m3/s], 0.24081
 Component Sizing Information, AirTerminal:SingleDuct:VAV:Reheat, PERIMETER_MID_ZN_3 VAV BOX COMPONENT, Design Size Maximum Flow per Zone Floor Area during Reheat [m3/s-m2], 1.16146E-003
 Component Sizing Information, AirTerminal:SingleDuct:VAV:Reheat, PERIMETER_MID_ZN_3 VAV BOX COMPONENT, Design Size Maximum Flow Fraction during Reheat [], 0.30000
 Component Sizing Information, Coil:Heating:Electric, PERIMETER_MID_ZN_3 VAV BOX REHEAT COIL, Design Size nominal_capacity [W], 16300.63621
 Component Sizing Information, AirTerminal:SingleDuct:VAV:Reheat, PERIMETER_MID_ZN_4 VAV BOX COMPONENT, Design Size Maximum Air Flow Rate [m3/s], 1.15439
 Component Sizing Information, AirTerminal:SingleDuct:VAV:Reheat, PERIMETER_MID_ZN_4 VAV BOX COMPONENT, Design Size Constant Minimum Air Flow Fraction, 0.20000
 Component Sizing Information, AirTerminal:SingleDuct:VAV:Reheat, PERIMETER_MID_ZN_4 VAV BOX COMPONENT, User-Specified Constant Minimum Air Flow Fraction, 0.30000
 Component Sizing Information, AirTerminal:SingleDuct:VAV:Reheat, PERIMETER_MID_ZN_4 VAV BOX COMPONENT, Design Size Minimum Air Flow Rate [m3/s], 0.34632
 Component Sizing Information, AirTerminal:SingleDuct:VAV:Reheat, PERIMETER_MID_ZN_4 VAV BOX COMPONENT, Design Size Maximum Flow per Zone Floor Area during Reheat [m3/s-m2], 2.63854E-003
 Component Sizing Information, AirTerminal:SingleDuct:VAV:Reheat, PERIMETER_MID_ZN_4 VAV BOX COMPONENT, Design Size Maximum Flow Fraction during Reheat [], 0.30000
 Component Sizing Information, Coil:Heating:Electric, PERIMETER_MID_ZN_4 VAV BOX REHEAT COIL, Design Size nominal_capacity [W], 13846.17018
 Component Sizing Information, AirTerminal:SingleDuct:VAV:Reheat, PERIMETER_TOP_ZN_1 VAV BOX COMPONENT, Design Size Maximum Air Flow Rate [m3/s], 1.19521
 Component Sizing Information, AirTerminal:SingleDuct:VAV:Reheat, PERIMETER_TOP_ZN_1 VAV BOX COMPONENT, Design Size Constant Minimum Air Flow Fraction, 0.20000
 Component Sizing Information, AirTerminal:SingleDuct:VAV:Reheat, PERIMETER_TOP_ZN_1 VAV BOX COMPONENT, User-Specified Constant Minimum Air Flow Fraction, 0.30000
[...]
Zone Surfaces,PERIMETER_TOP_ZN_1,8
HeatTransfer Surface,PERIMETER_TOP_ZN_1_WALL_EAST,Wall,,CTF - ConductionTransferFunction,INT-WALLS,6.299,3.242,,17.74,17.74,17.74,45.00,90.00,6.47,2.74,0.00,PERIMETER_TOP_ZN_2_WALL_SOUTH,Other/Same Surface Int Conv,ASHRAETARP,NoSun,NoWind,0.50,0.50,0.50,0.50,4
HeatTransfer Surface,PERIMETER_TOP_ZN_1_WALL_NORTH,Wall,,CTF - ConductionTransferFunction,INT-WALLS,6.299,3.242,,111.82,111.82,111.82,0.00,90.00,40.76,2.74,0.00,CORE_TOP_ZN_5_WALL_SOUTH,Other/Same Surface Int Conv,ASHRAETARP,NoSun,NoWind,0.50,0.50,0.50,0.50,4
HeatTransfer Surface,PERIMETER_TOP_ZN_1_WALL_SOUTH,Wall,,CTF - ConductionTransferFunction,STEEL FRAME NON-RES EXT WALL,0.514,0.477,,71.63,136.92,71.63,180.00,90.00,49.91,2.74,0.00,ExternalEnvironment,DOE-2,ASHRAETARP,SunExposed,WindExposed,0.50,0.50,0.50,0.50,4
HeatTransfer Surface,PERIMETER_TOP_ZN_1_WALL_SOUTH_WINDOW,Window,PERIMETER_TOP_ZN_1_WALL_SOUTH,Window5 Detailed Fenestration,WINDOW NON-RES FIXED,N/A,3.241,No,65.28,65.28,65.28,180.00,90.00,49.91,1.31,0.00,ExternalEnvironment,DOE-2,ASHRAETARP,SunExposed,WindExposed,0.50,0.50,0.50,0.50,4
HeatTransfer Surface,PERIMETER_TOP_ZN_1_WALL_WEST,Wall,,CTF - ConductionTransferFunction,INT-WALLS,6.299,3.242,,17.74,17.74,17.74,315.00,90.00,6.47,2.74,0.00,PERIMETER_TOP_ZN_4_WALL_SOUTH,Other/Same Surface Int Conv,ASHRAETARP,NoSun,NoWind,0.50,0.50,0.50,0.50,4
HeatTransfer Surface,PERIMETER_TOP_ZN_1_FLOOR,Floor,,CTF - ConductionTransferFunction,INT-FLOOR-TOPSIDE,3.401,1.862,,207.34,207.34,207.34,180.00,180.00,40.76,6.47,0.00,MIDFLOOR_PLENUM_CEILING_1,Other/Same Surface Int Conv,ASHRAETARP,NoSun,NoWind,1.00,0.00,1.00,0.00,4
HeatTransfer Surface,PERIMETER_TOP_ZN_1_CEILING,Roof,,CTF - ConductionTransferFunction,DROPCEILING,4.488,2.432,,207.34,207.34,207.34,45.00,0.00,6.47,49.91,0.00,TOPFLOOR_PLENUM_FLOOR_1,Other/Same Surface Int Conv,ASHRAETARP,NoSun,NoWind,0.00,1.00,0.00,1.00,4
HeatTransfer Surface,PERIMETER_TOP_ZN_1 INTERNAL MASS,Internal Mass,,CTF - ConductionTransferFunction,INTERIORFURNISHINGS,0.800,0.800,,414.68,414.68,414.68,0.00,90.00,414.68,1.00,0.00,PERIMETER_TOP_ZN_1 INTERNAL MASS,Other/Same Surface Int Conv,ASHRAETARP,NoSun,NoWind,0.00,0.50,1.00,0.00,0
Zone Surfaces,PERIMETER_TOP_ZN_2,8
HeatTransfer Surface,PERIMETER_TOP_ZN_2_WALL_EAST,Wall,,CTF - ConductionTransferFunction,STEEL FRAME NON-RES EXT WALL,0.514,0.477,,47.75,91.28,47.75,90.00,90.00,33.27,2.74,0.00,ExternalEnvironment,DOE-2,ASHRAETARP,SunExposed,WindExposed,0.50,0.50,0.50,0.50,4
HeatTransfer Surface,PERIMETER_TOP_ZN_2_WALL_EAST_WINDOW,Window,PERIMETER_TOP_ZN_2_WALL_EAST,Window5 Detailed Fenestration,WINDOW NON-RES FIXED,N/A,3.241,No,43.52,43.52,43.52,90.00,90.00,33.27,1.31,0.00,ExternalEnvironment,DOE-2,ASHRAETARP,SunExposed,WindExposed,0.50,0.50,0.50,0.50,4
HeatTransfer Surface,PERIMETER_TOP_ZN_2_WALL_NORTH,Wall,,CTF - ConductionTransferFunction,INT-WALLS,6.299,3.242,,17.74,17.74,17.74,315.00,90.00,6.47,2.74,0.00,PERIMETER_TOP_ZN_3_WALL_EAST,Other/Same Surface Int Conv,ASHRAETARP,NoSun,NoWind,0.50,0.50,0.50,0.50,4
HeatTransfer Surface,PERIMETER_TOP_ZN_2_WALL_SOUTH,Wall,,CTF - ConductionTransferFunction,INT-WALLS,6.299,3.242,,17.74,17.74,17.74,225.00,90.00,6.47,2.74,0.00,PERIMETER_TOP_ZN_1_WALL_EAST,Other/Same Surface Int Conv,ASHRAETARP,NoSun,NoWind,0.50,0.50,0.50,0.50,4
HeatTransfer Surface,PERIMETER_TOP_ZN_2_WALL_WEST,Wall,,CTF - ConductionTransferFunction,INT-WALLS,6.299,3.242,,66.19,66.19,66.19,270.00,90.00,24.13,2.74,0.00,CORE_TOP_ZN_5_WALL_EAST,Other/Same Surface Int Conv,ASHRAETARP,NoSun,NoWind,0.50,0.50,0.50,0.50,4
HeatTransfer Surface,PERIMETER_TOP_ZN_2_FLOOR,Floor,,CTF - ConductionTransferFunction,INT-FLOOR-TOPSIDE,3.401,1.862,,131.26,131.26,131.26,90.00,180.00,24.13,6.47,0.00,MIDFLOOR_PLENUM_CEILING_2,Other/Same Surface Int Conv,ASHRAETARP,NoSun,NoWind,1.00,0.00,1.00,0.00,4
HeatTransfer Surface,PERIMETER_TOP_ZN_2_CEILING,Roof,,CTF - ConductionTransferFunction,DROPCEILING,4.488,2.432,,131.26,131.26,131.26,315.00,0.00,6.47,33.27,0.00,TOPFLOOR_PLENUM_FLOOR_2,Other/Same Surface Int Conv,ASHRAETARP,NoSun,NoWind,0.00,1.00,0.00,1.00,4
HeatTransfer Surface,PERIMETER_TOP_ZN_2 INTERNAL MASS,Internal Mass,,CTF - ConductionTransferFunction,INTERIORFURNISHINGS,0.800,0.800,,262.52,262.52,262.52,0.00,90.00,262.52,1.00,0.00,PERIMETER_TOP_ZN_2 INTERNAL MASS,Other/Same Surface Int Conv,ASHRAETARP,NoSun,NoWind,0.00,0.50,1.00,0.00,0
Zone Surfaces,PERIMETER_TOP_ZN_3,8
HeatTransfer Surface,PERIMETER_TOP_ZN_3_WALL_EAST,Wall,,CTF - ConductionTransferFunction,INT-WALLS,6.299,3.242,,17.74,17.74,17.74,135.00,90.00,6.47,2.74,0.00,PERIMETER_TOP_ZN_2_WALL_NORTH,Other/Same Surface Int Conv,ASHRAETARP,NoSun,NoWind,0.50,0.50,0.50,0.50,4
HeatTransfer Surface,PERIMETER_TOP_ZN_3_WALL_NORTH,Wall,,CTF - ConductionTransferFunction,STEEL FRAME NON-RES EXT WALL,0.514,0.477,,71.63,136.92,71.63,0.00,90.00,49.91,2.74,0.00,ExternalEnvironment,DOE-2,ASHRAETARP,SunExposed,WindExposed,0.50,0.50,0.50,0.50,4
HeatTransfer Surface,PERIMETER_TOP_ZN_3_WALL_NORTH_WINDOW,Window,PERIMETER_TOP_ZN_3_WALL_NORTH,Window5 Detailed Fenestration,WINDOW NON-RES FIXED,N/A,3.241,No,65.28,65.28,65.28,0.00,90.00,49.91,1.31,0.00,ExternalEnvironment,DOE-2,ASHRAETARP,SunExposed,WindExposed,0.50,0.50,0.50,0.50,4
HeatTransfer Surface,PERIMETER_TOP_ZN_3_WALL_SOUTH,Wall,,CTF - ConductionTransferFunction,INT-WALLS,6.299,3.242,,111.82,111.82,111.82,180.00,90.00,40.76,2.74,0.00,CORE_TOP_ZN_5_WALL_NORTH,Other/Same Surface Int Conv,ASHRAETARP,NoSun,NoWind,0.50,0.50,0.50,0.50,4
HeatTransfer Surface,PERIMETER_TOP_ZN_3_WALL_WEST,Wall,,CTF - ConductionTransferFunction,INT-WALLS,6.299,3.242,,17.74,17.74,17.74,225.00,90.00,6.47,2.74,0.00,PERIMETER_TOP_ZN_4_WALL_NORTH,Other/Same Surface Int Conv,ASHRAETARP,NoSun,NoWind,0.50,0.50,0.50,0.50,4
HeatTransfer Surface,PERIMETER_TOP_ZN_3_FLOOR,Floor,,CTF - ConductionTransferFunction,INT-FLOOR-TOPSIDE,3.401,1.862,,207.34,207.34,207.34,0.00,180.00,40.76,6.47,0.00,MIDFLOOR_PLENUM_CEILING_3,Other/Same Surface Int Conv,ASHRAETARP,NoSun,NoWind,1.00,0.00,1.00,0.00,4
HeatTransfer Surface,PERIMETER_TOP_ZN_3_CEILING,Roof,,CTF - ConductionTransferFunction,DROPCEILING,4.488,2.432,,207.34,207.34,207.34,225.00,0.00,6.47,49.91,0.00,TOPFLOOR_PLENUM_FLOOR_3,Other/Same Surface Int Conv,ASHRAETARP,NoSun,NoWind,0.00,1.00,0.00,1.00,4
HeatTransfer Surface,PERIMETER_TOP_ZN_3 INTERNAL MASS,Internal Mass,,CTF - ConductionTransferFunction,INTERIORFURNISHINGS,0.800,0.800,,414.68,414.68,414.68,0.00,90.00,414.68,1.00,0.00,PERIMETER_TOP_ZN_3 INTERNAL MASS,Other/Same Surface Int Conv,ASHRAETARP,NoSun,NoWind,0.00,0.50,1.00,0.00,0
Zone Surfaces,PERIMETER_TOP_ZN_4,8
HeatTransfer Surface,PERIMETER_TOP_ZN_4_WALL_EAST,Wall,,CTF - ConductionTransferFunction,INT-WALLS,6.299,3.242,,66.19,66.19,66.19,90.00,90.00,24.13,2.74,0.00,CORE_TOP_ZN_5_WALL_WEST,Other/Same Surface Int Conv,ASHRAETARP,NoSun,NoWind,0.50,0.50,0.50,0.50,4
HeatTransfer Surface,PERIMETER_TOP_ZN_4_WALL_NORTH,Wall,,CTF - ConductionTransferFunction,INT-WALLS,6.299,3.242,,17.74,17.74,17.74,45.00,90.00,6.47,2.74,0.00,PERIMETER_TOP_ZN_3_WALL_WEST,Other/Same Surface Int Conv,ASHRAETARP,NoSun,NoWind,0.50,0.50,0.50,0.50,4
HeatTransfer Surface,PERIMETER_TOP_ZN_4_WALL_SOUTH,Wall,,CTF - ConductionTransferFunction,INT-WALLS,6.299,3.242,,17.74,17.74,17.74,135.00,90.00,6.47,2.74,0.00,PERIMETER_TOP_ZN_1_WALL_WEST,Other/Same Surface Int Conv,ASHRAETARP,NoSun,NoWind,0.50,0.50,0.50,0.50,4
HeatTransfer Surface,PERIMETER_TOP_ZN_4_WALL_WEST,Wall,,CTF - ConductionTransferFunction,STEEL FRAME NON-RES EXT WALL,0.514,0.477,,47.75,91.28,47.75,270.00,90.00,33.27,2.74,0.00,ExternalEnvironment,DOE-2,ASHRAETARP,SunExposed,WindExposed,0.50,0.50,0.50,0.50,4
HeatTransfer Surface,PERIMETER_TOP_ZN_4_WALL_WEST_WINDOW,Window,PERIMETER_TOP_ZN_4_WALL_WEST,Window5 Detailed Fenestration,WINDOW NON-RES FIXED,N/A,3.241,No,43.52,43.52,43.52,270.00,90.00,33.27,1.31,0.00,ExternalEnvironment,DOE-2,ASHRAETARP,SunExposed,WindExposed,0.50,0.50,0.50,0.50,4
HeatTransfer Surface,PERIMETER_TOP_ZN_4_FLOOR,Floor,,CTF - ConductionTransferFunction,INT-FLOOR-TOPSIDE,3.401,1.862,,131.25,131.25,131.25,270.00,180.00,24.13,6.47,0.00,MIDFLOOR_PLENUM_CEILING_4,Other/Same Surface Int Conv,ASHRAETARP,NoSun,NoWind,1.00,0.00,1.00,0.00,4
HeatTransfer Surface,PERIMETER_TOP_ZN_4_CEILING,Roof,,CTF - ConductionTransferFunction,DROPCEILING,4.488,2.432,,131.25,131.25,131.25,135.00,0.00,6.47,33.27,0.00,TOPFLOOR_PLENUM_FLOOR_4,Other/Same Surface Int Conv,ASHRAETARP,NoSun,NoWind,0.00,1.00,0.00,1.00,4
HeatTransfer Surface,PERIMETER_TOP_ZN_4 INTERNAL MASS,Internal Mass,,CTF - ConductionTransferFunction,INTERIORFURNISHINGS,0.800,0.800,,262.51,262.51,262.51,0.00,90.00,262.51,1.00,0.00,PERIMETER_TOP_ZN_4 INTERNAL MASS,Other/Same Surface Int Conv,ASHRAETARP,NoSun,NoWind,0.00,0.50,1.00,0.00,0
Zone Surfaces,TOPFLOOR_PLENUM,10
HeatTransfer Surface,PERIMETER_TOP_PLENUM_WALL_EAST,Wall,,CTF - ConductionTransferFunction,STEEL FRAME NON-RES EXT WALL,0.514,0.477,,40.57,40.57,40.57,90.00,90.00,33.27,1.22,0.00,ExternalEnvironment,DOE-2,ASHRAETARP,SunExposed,WindExposed,0.50,0.50,0.50,0.50,4
HeatTransfer Surface,PERIMETER_TOP_PLENUM_WALL_NORTH,Wall,,CTF - ConductionTransferFunction,STEEL FRAME NON-RES EXT WALL,0.514,0.477,,60.85,60.85,60.85,0.00,90.00,49.91,1.22,0.00,ExternalEnvironment,DOE-2,ASHRAETARP,SunExposed,WindExposed,0.50,0.50,0.50,0.50,4
HeatTransfer Surface,PERIMETER_TOP_PLENUM_WALL_SOUTH,Wall,,CTF - ConductionTransferFunction,STEEL FRAME NON-RES EXT WALL,0.514,0.477,,60.85,60.85,60.85,180.00,90.00,49.91,1.22,0.00,ExternalEnvironment,DOE-2,ASHRAETARP,SunExposed,WindExposed,0.50,0.50,0.50,0.50,4
HeatTransfer Surface,PERIMETER_TOP_PLENUM_WALL_WEST,Wall,,CTF - ConductionTransferFunction,STEEL FRAME NON-RES EXT WALL,0.514,0.477,,40.57,40.57,40.57,270.00,90.00,33.27,1.22,0.00,ExternalEnvironment,DOE-2,ASHRAETARP,SunExposed,WindExposed,0.50,0.50,0.50,0.50,4
HeatTransfer Surface,TOPFLOOR_PLENUM_FLOOR_1,Floor,,CTF - ConductionTransferFunction,DROPCEILING,4.488,2.147,,207.34,207.34,207.34,180.00,180.00,40.76,6.47,0.00,PERIMETER_TOP_ZN_1_CEILING,Other/Same Surface Int Conv,ASHRAETARP,NoSun,NoWind,1.00,0.00,1.00,0.00,4
HeatTransfer Surface,TOPFLOOR_PLENUM_FLOOR_2,Floor,,CTF - ConductionTransferFunction,DROPCEILING,4.488,2.147,,131.26,131.26,131.26,90.00,180.00,24.13,6.47,0.00,PERIMETER_TOP_ZN_2_CEILING,Other/Same Surface Int Conv,ASHRAETARP,NoSun,NoWind,1.00,0.00,1.00,0.00,4
HeatTransfer Surface,TOPFLOOR_PLENUM_FLOOR_3,Floor,,CTF - ConductionTransferFunction,DROPCEILING,4.488,2.147,,207.34,207.34,207.34,315.00,180.00,6.47,49.91,0.00,PERIMETER_TOP_ZN_3_CEILING,Other/Same Surface Int Conv,ASHRAETARP,NoSun,NoWind,1.00,0.00,1.00,0.00,4
HeatTransfer Surface,TOPFLOOR_PLENUM_FLOOR_4,Floor,,CTF - ConductionTransferFunction,DROPCEILING,4.488,2.147,,131.25,131.25,131.25,225.00,180.00,6.47,33.27,0.00,PERIMETER_TOP_ZN_4_CEILING,Other/Same Surface Int Conv,ASHRAETARP,NoSun,NoWind,1.00,0.00,1.00,0.00,4
HeatTransfer Surface,TOPFLOOR_PLENUM_FLOOR_5,Floor,,CTF - ConductionTransferFunction,DROPCEILING,4.488,2.147,,983.54,983.54,983.54,270.00,180.00,24.13,40.76,0.00,CORE_TOP_ZN_5_CEILING,Other/Same Surface Int Conv,ASHRAETARP,NoSun,NoWind,1.00,0.00,1.00,0.00,4
HeatTransfer Surface,BUILDING_ROOF,Roof,,CTF - ConductionTransferFunction,IEAD NON-RES ROOF,0.376,0.351,,1660.73,1660.73,1660.73,0.00,0.00,49.91,33.27,0.00,ExternalEnvironment,DOE-2,ASHRAETARP,SunExposed,WindExposed,0.00,1.00,0.00,1.00,4
! <Environment>,Environment Name,Environment Type, Start Date, End Date, Start DayOfWeek, Duration {#days}, Source:Start DayOfWeek,  Use Daylight Saving, Use Holidays, Apply Weekend Holiday Rule,  Use Rain Values, Use Snow Values, Sky Temperature Model
! <Environment:Special Days>, Special Day Name, Special Day Type, Source, Start Date, Duration {#days}
! <Environment:Daylight Saving>, Daylight Saving Indicator, Source, Start Date, End Date
! <Environment:WarmupDays>, NumberofWarmupDays
Environment,CHICAGO ANN CLG .4% CONDNS WB=>MDB,SizingPeriod:DesignDay,07/21,07/21,SummerDesignDay,1,N/A,N/A,N/A,N/A,N/A,N/A,Clark and Allen
Environment:Daylight Saving,No,SizingPeriod:DesignDay
! <Environment:Design Day Data>, Max Dry-Bulb Temp {C}, Temp Range {dC}, Temp Range Ind Type, Hum Ind Type, Hum Ind Value at Max Temp, Hum Ind Units, Pressure {Pa}, Wind Direction {deg CW from N}, Wind Speed {m/s}, Clearness, Rain, Snow
! <Environment:Design Day Misc>,DayOfYear,ASHRAE A Coeff,ASHRAE B Coeff,ASHRAE C Coeff,Solar Constant-Annual Variation,Eq of Time {minutes}, Solar Declination Angle {deg}, Solar Model
Environment:Design Day Data,31.20,10.70,DefaultMultipliers,Wetbulb,25.50,{C},99063,230,5.3,1.00,No,No
Environment:Design Day Misc,202,1084.4,0.2082,0.1365,1.0,-6.23,20.6,ASHRAEClearSky
Environment:WarmupDays,  6
! <Tabular Report>,Style,Unit Conversion
Tabular Report,HTML,NONE
! <Warmup Convergence Information>,Zone Name,Environment Type/Name,Average Warmup Temperature Difference {deltaC},Std Dev Warmup Temperature Difference {deltaC},Max Temperature Pass/Fail Convergence,Min Temperature Pass/Fail Convergence,Average Warmup Load Difference {W},Std Dev Warmup Load Difference {W},Heating Load Pass/Fail Convergence,Cooling Load Pass/Fail Convergence
 Warmup Convergence Information,CORE_BOTTOM,SizingPeriod: CHICAGO ANN CLG .4% CONDNS WB=>MDB,0.3248148687,0.4987213028,Pass,Pass,0.3014733640,0.7804361773,Pass,Pass
 Warmup Convergence Information,CORE_MID,SizingPeriod: CHICAGO ANN CLG .4% CONDNS WB=>MDB,0.2354875341,0.4059115847,Pass,Pass,0.2033559580,0.4063324083,Pass,Pass
 Warmup Convergence Information,CORE_TOP,SizingPeriod: CHICAGO ANN CLG .4% CONDNS WB=>MDB,0.2140567996,0.3891329743,Pass,Pass,0.2048860743,0.4199679910,Pass,Pass
 Warmup Convergence Information,FIRSTFLOOR_PLENUM,SizingPeriod: CHICAGO ANN CLG .4% CONDNS WB=>MDB,9.7443441451E-002,0.1563461737,Pass,Pass,0.9768857983,2.5192670812,Pass,Pass
 Warmup Convergence Information,MIDFLOOR_PLENUM,SizingPeriod: CHICAGO ANN CLG .4% CONDNS WB=>MDB,7.7246849480E-002,0.1241189228,Pass,Pass,0.6879348232,2.1464144049,Pass,Pass
 Warmup Convergence Information,PERIMETER_BOT_ZN_1,SizingPeriod: CHICAGO ANN CLG .4% CONDNS WB=>MDB,0.3296155835,0.5110294608,Pass,Pass,0.3535437056,1.0054433785,Pass,Pass
 Warmup Convergence Information,PERIMETER_BOT_ZN_2,SizingPeriod: CHICAGO ANN CLG .4% CONDNS WB=>MDB,0.4183092000,0.6476355346,Pass,Pass,0.4470562737,1.3797012841,Pass,Pass
 Warmup Convergence Information,PERIMETER_BOT_ZN_3,SizingPeriod: CHICAGO ANN CLG .4% CONDNS WB=>MDB,0.2654306777,0.4150411351,Pass,Pass,0.2829908815,0.7257895263,Pass,Pass
 Warmup Convergence Information,PERIMETER_BOT_ZN_4,SizingPeriod: CHICAGO ANN CLG .4% CONDNS WB=>MDB,0.4452209422,0.6781031001,Pass,Pass,0.4855949417,1.5144708907,Pass,Pass
 Warmup Convergence Information,PERIMETER_MID_ZN_1,SizingPeriod: CHICAGO ANN CLG .4% CONDNS WB=>MDB,0.2692946356,0.5124132989,Pass,Pass,0.1924616990,0.3754712403,Pass,Pass
 Warmup Convergence Information,PERIMETER_MID_ZN_2,SizingPeriod: CHICAGO ANN CLG .4% CONDNS WB=>MDB,0.3404675263,0.6279746084,Pass,Pass,0.1887013879,0.3695484053,Pass,Pass
 Warmup Convergence Information,PERIMETER_MID_ZN_3,SizingPeriod: CHICAGO ANN CLG .4% CONDNS WB=>MDB,0.2254576234,0.4196452771,Pass,Pass,0.2006834456,0.3964333848,Pass,Pass
 Warmup Convergence Information,PERIMETER_MID_ZN_4,SizingPeriod: CHICAGO ANN CLG .4% CONDNS WB=>MDB,0.3638136146,0.6545102170,Pass,Pass,0.1919742335,0.3698597042,Pass,Pass
 Warmup Convergence Information,PERIMETER_TOP_ZN_1,SizingPeriod: CHICAGO ANN CLG .4% CONDNS WB=>MDB,0.2622874285,0.4986673290,Pass,Pass,0.1928533874,0.3765361652,Pass,Pass
 Warmup Convergence Information,PERIMETER_TOP_ZN_2,SizingPeriod: CHICAGO ANN CLG .4% CONDNS WB=>MDB,0.3273898984,0.6012360665,Pass,Pass,0.1886999227,0.3702666834,Pass,Pass
 Warmup Convergence Information,PERIMETER_TOP_ZN_3,SizingPeriod: CHICAGO ANN CLG .4% CONDNS WB=>MDB,0.2235224606,0.4357321779,Pass,Pass,0.1975539561,0.3901162137,Pass,Pass
 Warmup Convergence Information,PERIMETER_TOP_ZN_4,SizingPeriod: CHICAGO ANN CLG .4% CONDNS WB=>MDB,0.3685640131,0.6467187925,Pass,Pass,0.1918393414,0.3701599667,Pass,Pass
 Warmup Convergence Information,TOPFLOOR_PLENUM,SizingPeriod: CHICAGO ANN CLG .4% CONDNS WB=>MDB,9.9009409982E-002,0.1162776154,Pass,Pass,0.5524947674,1.4288370644,Pass,Pass
Environment,CHICAGO ANN HTG 99.6% CONDNS DB,SizingPeriod:DesignDay,01/21,01/21,WinterDesignDay,1,N/A,N/A,N/A,N/A,N/A,N/A,Clark and Allen
Environment:Daylight Saving,No,SizingPeriod:DesignDay
Environment:Design Day Data,-20.60,0.00,DefaultMultipliers,Wetbulb,-20.60,{C},99063,270,4.9,0.00,No,No
Environment:Design Day Misc, 21,1229.0,0.1415,5.7310E-002,1.0,-11.15,-20.1,ASHRAEClearSky
Environment:WarmupDays,  6
 Warmup Convergence Information,CORE_BOTTOM,SizingPeriod: CHICAGO ANN HTG 99.6% CONDNS DB,0.1150542596,0.1982775134,Pass,Pass,0.4422927726,1.2508624390,Pass,Pass
 Warmup Convergence Information,CORE_MID,SizingPeriod: CHICAGO ANN HTG 99.6% CONDNS DB,0.1363244092,0.2347647019,Pass,Pass,0.2901587785,0.4484449147,Pass,Pass
 Warmup Convergence Information,CORE_TOP,SizingPeriod: CHICAGO ANN HTG 99.6% CONDNS DB,0.3595733210,0.5567724491,Pass,Pass,0.3196971923,0.4969803510,Pass,Pass
 Warmup Convergence Information,FIRSTFLOOR_PLENUM,SizingPeriod: CHICAGO ANN HTG 99.6% CONDNS DB,0.1490474080,0.2024701793,Pass,Pass,0.2669392508,0.4273099182,Pass,Pass
 Warmup Convergence Information,MIDFLOOR_PLENUM,SizingPeriod: CHICAGO ANN HTG 99.6% CONDNS DB,0.1706309236,0.2348830283,Pass,Pass,0.2675216002,0.4271817933,Pass,Pass
 Warmup Convergence Information,PERIMETER_BOT_ZN_1,SizingPeriod: CHICAGO ANN HTG 99.6% CONDNS DB,0.7757132465,1.1126521234,Pass,Pass,0.2547316315,0.4207246961,Pass,Pass
 Warmup Convergence Information,PERIMETER_BOT_ZN_2,SizingPeriod: CHICAGO ANN HTG 99.6% CONDNS DB,0.8061591832,1.1853802621,Pass,Pass,0.2519717792,0.4179335691,Pass,Pass
 Warmup Convergence Information,PERIMETER_BOT_ZN_3,SizingPeriod: CHICAGO ANN HTG 99.6% CONDNS DB,0.7752365520,1.1354097347,Pass,Pass,0.2526800441,0.4184411587,Pass,Pass
 Warmup Convergence Information,PERIMETER_BOT_ZN_4,SizingPeriod: CHICAGO ANN HTG 99.6% CONDNS DB,0.8044399670,1.2205968207,Pass,Pass,0.2529723275,0.4179147641,Pass,Pass
 Warmup Convergence Information,PERIMETER_MID_ZN_1,SizingPeriod: CHICAGO ANN HTG 99.6% CONDNS DB,0.8153689724,1.1754353731,Pass,Pass,0.2490725568,0.4201269312,Pass,Pass
 Warmup Convergence Information,PERIMETER_MID_ZN_2,SizingPeriod: CHICAGO ANN HTG 99.6% CONDNS DB,0.8411664579,1.2783042276,Pass,Pass,0.2547963842,0.4170625725,Pass,Pass
 Warmup Convergence Information,PERIMETER_MID_ZN_3,SizingPeriod: CHICAGO ANN HTG 99.6% CONDNS DB,0.8148912327,1.1981968546,Pass,Pass,0.2544403717,0.4173423588,Pass,Pass
 Warmup Convergence Information,PERIMETER_MID_ZN_4,SizingPeriod: CHICAGO ANN HTG 99.6% CONDNS DB,0.8443857684,1.3049628951,Pass,Pass,0.2548409331,0.4171836970,Pass,Pass
 Warmup Convergence Information,PERIMETER_TOP_ZN_1,SizingPeriod: CHICAGO ANN HTG 99.6% CONDNS DB,0.9946573770,1.5410132369,Pass,Pass,0.2723293407,0.4208312292,Pass,Pass
 Warmup Convergence Information,PERIMETER_TOP_ZN_2,SizingPeriod: CHICAGO ANN HTG 99.6% CONDNS DB,1.0170783706,1.5623967070,Pass,Pass,0.2715401678,0.4199947730,Pass,Pass
 Warmup Convergence Information,PERIMETER_TOP_ZN_3,SizingPeriod: CHICAGO ANN HTG 99.6% CONDNS DB,0.9942926757,1.5508989205,Pass,Pass,0.2723196424,0.4209404068,Pass,Pass
 Warmup Convergence Information,PERIMETER_TOP_ZN_4,SizingPeriod: CHICAGO ANN HTG 99.6% CONDNS DB,1.0233712223,1.5629910852,Pass,Pass,0.2713070166,0.4197573619,Pass,Pass
 Warmup Convergence Information,TOPFLOOR_PLENUM,SizingPeriod: CHICAGO ANN HTG 99.6% CONDNS DB,0.5595505074,0.7282533671,Pass,Pass,0.2562973949,0.4284845721,Pass,Pass
! <Program Control Information:Threads/Parallel Sims>, Threading Supported,Maximum Number of Threads, Env Set Threads (OMP_NUM_THREADS), EP Env Set Threads (EP_OMP_NUM_THREADS), IDF Set Threads, Number of Threads Used (Interior Radiant Exchange), Number Nominal Surfaces, Number Parallel Sims
Program Control:Threads/Parallel Sims, No,1, N/A, N/A, N/A, N/A, N/A, N/A
End of Data
